<nodes>
<node id="n0" x="0" y="0" />
<node id="n1" x="-66" y="16" />
<node id="n2" x="-163" y="44" />
<node id="n3" x="-279" y="83" />
<node id="n4" x="-375" y="258" />
<node id="n5" x="-544" y="659" />
<node id="n6" x="-854" y="1754" />
<node id="n7" x="-1150" y="2151" />
<node id="n8" x="-866" y="1751" />
<node id="n9" x="-566" y="535" />
<node id="n10" x="-383" y="255" />
<node id="n11" x="-286" y="72" />
<node id="n12" x="-165" y="30" />
<node id="n13" x="-1233" y="-2244" />
<node id="n14" x="-1248" y="-2251" />
<node id="n15" x="-1526" y="-2332" />
<node id="n16" x="-2156" y="-2584" />
<node id="n17" x="-2328" y="-2794" />
<node id="n18" x="-2970" y="-2983" />
<node id="n19" x="-2328" y="-2794" />
<node id="n20" x="-2156" y="-2584" />
<node id="n21" x="-1526" y="-2332" />
<node id="n22" x="-753" y="-626" />
<node id="n23" x="-774" y="-519" />
<node id="n24" x="-844" y="-176" />
<node id="n25" x="-757" y="317" />
<node id="n26" x="-534" y="653" />
<node id="n27" x="-634" y="576" />
<node id="n28" x="-767" y="324" />
<node id="n29" x="-856" y="-178" />
<node id="n30" x="2773" y="-80" />
<node id="n31" x="2844" y="-74" />
<node id="n32" x="2963" y="13" />
<node id="n33" x="3542" y="439" />
<node id="n34" x="3904" y="620" />
<node id="n35" x="4087" y="712" />
<node id="n36" x="4507" y="797" />
<node id="n37" x="4324" y="786" />
<node id="n38" x="4079" y="725" />
<node id="n39" x="3896" y="636" />
<node id="n40" x="3535" y="459" />
<node id="n41" x="2951" y="30" />
<node id="n42" x="1297" y="-4950" />
<node id="n43" x="1302" y="-4904" />
<node id="n44" x="1312" y="-4562" />
<node id="n45" x="1296" y="-4310" />
<node id="n46" x="1276" y="-4150" />
<node id="n47" x="1222" y="-3899" />
<node id="n48" x="1188" y="-3745" />
<node id="n49" x="1168" y="-3663" />
<node id="n50" x="1148" y="-3571" />
<node id="n51" x="1043" y="-2824" />
<node id="n52" x="1123" y="-2593" />
<node id="n53" x="1082" y="-2653" />
<node id="n54" x="1043" y="-2824" />
<node id="n55" x="1128" y="-3575" />
<node id="n56" x="1147" y="-3667" />
<node id="n57" x="1167" y="-3752" />
<node id="n58" x="1203" y="-3908" />
<node id="n59" x="1259" y="-4150" />
<node id="n60" x="1286" y="-4345" />
<node id="n61" x="1292" y="-4574" />
<node id="n62" x="1748" y="-5248" />
<node id="n63" x="1775" y="-5245" />
<node id="n64" x="1850" y="-5190" />
<node id="n65" x="2025" y="-5077" />
<node id="n66" x="2171" y="-4982" />
<node id="n67" x="2299" y="-4899" />
<node id="n68" x="2432" y="-4814" />
<node id="n69" x="2526" y="-4749" />
<node id="n70" x="2496" y="-4767" />
<node id="n71" x="2432" y="-4814" />
<node id="n72" x="2299" y="-4899" />
<node id="n73" x="2171" y="-4982" />
<node id="n74" x="2025" y="-5077" />
<node id="n75" x="1850" y="-5190" />
<node id="n76" x="2085" y="-5168" />
<node id="n77" x="2090" y="-5165" />
<node id="n78" x="2229" y="-5074" />
<node id="n79" x="1573" y="-5208" />
<node id="n80" x="1594" y="-5194" />
<node id="n81" x="1491" y="-4895" />
<node id="n82" x="1471" y="-4897" />
<node id="n83" x="986" y="-4931" />
<node id="n84" x="805" y="-4932" />
<node id="n85" x="147" y="-5124" />
<node id="n86" x="165" y="-5120" />
<node id="n87" x="871" y="-4932" />
<node id="n88" x="986" y="-4931" />
<node id="n89" x="2463" y="-4629" />
<node id="n90" x="2444" y="-4637" />
<node id="n91" x="2096" y="-4866" />
<node id="n92" x="1951" y="-4961" />
<node id="n93" x="1691" y="-5133" />
<node id="n94" x="3012" y="-4612" />
<node id="n95" x="2992" y="-4613" />
<node id="n96" x="2542" y="-4740" />
<node id="n97" x="2549" y="-4737" />
<node id="n98" x="2961" y="-4614" />
<node id="n99" x="3296" y="-4603" />
<node id="n100" x="3280" y="-4609" />
<node id="n101" x="2961" y="-4614" />
<node id="n102" x="-629" y="-1300" />
<node id="n103" x="-641" y="-1319" />
<node id="n104" x="-742" y="-1703" />
<node id="n105" x="-944" y="-1747" />
<node id="n106" x="-919" y="-1745" />
<node id="n107" x="-742" y="-1703" />
<node id="n108" x="925" y="-1956" />
<node id="n109" x="790" y="-1944" />
<node id="n110" x="-641" y="-1319" />
<node id="n111" x="-619" y="-1326" />
<node id="n112" x="-66" y="-1711" />
<node id="n113" x="208" y="-1912" />
<node id="n114" x="654" y="-2617" />
<node id="n115" x="1061" y="-2623" />
<node id="n116" x="1020" y="-2624" />
<node id="n117" x="654" y="-2617" />
<node id="n118" x="208" y="-1912" />
<node id="n119" x="-52" y="-1694" />
<node id="n120" x="208" y="-1912" />
<node id="n121" x="271" y="-1919" />
<node id="n122" x="-3011" y="1477" />
<node id="n123" x="-2117" y="1871" />
<node id="n124" x="-1729" y="1689" />
<node id="n125" x="-511" y="615" />
<node id="n126" x="-619" y="647" />
<node id="n127" x="-1769" y="1763" />
<node id="n128" x="-2232" y="1903" />
<node id="n129" x="2115" y="-1769" />
<node id="n130" x="2100" y="-1775" />
<node id="n131" x="1853" y="-1838" />
<node id="n132" x="1356" y="-2113" />
<node id="n133" x="1223" y="-2317" />
<node id="n134" x="1082" y="-2653" />
<node id="n135" x="1123" y="-2593" />
<node id="n136" x="1232" y="-2311" />
<node id="n137" x="1370" y="-2120" />
<node id="n138" x="1982" y="-1816" />
<node id="n139" x="3634" y="-2424" />
<node id="n140" x="3610" y="-2423" />
<node id="n141" x="2417" y="-2581" />
<node id="n142" x="2151" y="1300" />
<node id="n143" x="2129" y="1304" />
<node id="n144" x="776" y="1233" />
<node id="n145" x="1690" y="-3038" />
<node id="n146" x="1699" y="-3031" />
<node id="n147" x="2429" y="-2594" />
<node id="n148" x="2151" y="1300" />
<node id="n149" x="2154" y="1253" />
<node id="n150" x="1851" y="-152" />
<node id="n151" x="1782" y="-396" />
<node id="n152" x="1698" y="-625" />
<node id="n153" x="1885" y="-1556" />
<node id="n154" x="453" y="1361" />
<node id="n155" x="469" y="1356" />
<node id="n156" x="1086" y="1222" />
<node id="n157" x="2151" y="1300" />
<node id="n158" x="2224" y="1296" />
<node id="n159" x="1853" y="-1838" />
<node id="n160" x="1850" y="-1826" />
<node id="n161" x="1885" y="-1556" />
<node id="n162" x="1698" y="-625" />
<node id="n163" x="1792" y="-389" />
<node id="n164" x="1875" y="-127" />
<node id="n165" x="2886" y="1420" />
<node id="n166" x="2677" y="1377" />
<node id="n167" x="2228" y="-1510" />
<node id="n168" x="2222" y="-1416" />
<node id="n169" x="2179" y="-1203" />
<node id="n170" x="2086" y="-535" />
<node id="n171" x="3670" y="-1382" />
<node id="n172" x="3638" y="-1411" />
<node id="n173" x="3375" y="-1667" />
<node id="n174" x="3104" y="-1895" />
<node id="n175" x="2938" y="-2081" />
<node id="n176" x="2326" y="-265" />
<node id="n177" x="2076" y="-477" />
<node id="n178" x="2074" y="-533" />
<node id="n179" x="2168" y="-1217" />
<node id="n180" x="2429" y="-2594" />
<node id="n181" x="2468" y="-2559" />
<node id="n182" x="2938" y="-2081" />
<node id="n183" x="3104" y="-1895" />
<node id="n184" x="3391" y="-1651" />
<node id="n185" x="3595" y="-2187" />
<node id="n186" x="3577" y="-2182" />
<node id="n187" x="3379" y="-2103" />
<node id="n188" x="3003" y="-1820" />
<node id="n189" x="2656" y="-1508" />
<node id="n190" x="2225" y="-1428" />
<node id="n191" x="2235" y="-1429" />
<node id="n192" x="2655" y="-1518" />
<node id="n193" x="3106" y="-1930" />
<node id="n194" x="3374" y="-2113" />
<node id="n195" x="2971" y="-3307" />
<node id="n196" x="2995" y="-3244" />
<node id="n197" x="3636" y="-2443" />
<node id="n198" x="3776" y="-2208" />
<node id="n199" x="3682" y="-1372" />
<node id="n200" x="3669" y="-1187" />
<node id="n201" x="3866" y="-724" />
<node id="n202" x="4722" y="801" />
<node id="n203" x="4733" y="730" />
<node id="n204" x="3847" y="-718" />
<node id="n205" x="3652" y="-1183" />
<node id="n206" x="3670" y="-1382" />
<node id="n207" x="3759" y="-2223" />
<node id="n208" x="3614" y="-2448" />
<node id="n209" x="2542" y="-4740" />
<node id="n210" x="2510" y="-4695" />
<node id="n211" x="2272" y="-4360" />
<node id="n212" x="2208" y="-4263" />
<node id="n213" x="2078" y="-4069" />
<node id="n214" x="1879" y="-3634" />
<node id="n215" x="1729" y="-3150" />
<node id="n216" x="1693" y="-3016" />
<node id="n217" x="1566" y="-2842" />
<node id="n218" x="1408" y="-2620" />
<node id="n219" x="1225" y="-2295" />
<node id="n220" x="224" y="-2" />
<node id="n221" x="219" y="-83" />
<node id="n222" x="1223" y="-2317" />
<node id="n223" x="1398" y="-2627" />
<node id="n224" x="1562" y="-2852" />
<node id="n225" x="1690" y="-3038" />
<node id="n226" x="1720" y="-3155" />
<node id="n227" x="1981" y="-3875" />
<node id="n228" x="2071" y="-4079" />
<node id="n229" x="2181" y="-4266" />
<node id="n230" x="2261" y="-4375" />
<node id="n231" x="-1339" y="-5551" />
<node id="n232" x="-1397" y="-5550" />
<node id="n233" x="-700" y="-5704" />
<node id="n234" x="-733" y="-5693" />
<node id="n235" x="-2162" y="-4943" />
<node id="n236" x="-2146" y="-5025" />
<node id="n237" x="-1339" y="-5551" />
<node id="n238" x="-1250" y="-5569" />
<node id="n239" x="-727" y="-5710" />
<node id="n240" x="-701" y="-5688" />
<node id="n241" x="-481" y="-5266" />
<node id="n242" x="-502" y="-5296" />
<node id="n243" x="-1158" y="-4808" />
<node id="n244" x="-1229" y="-5071" />
<node id="n245" x="-1270" y="-5248" />
<node id="n246" x="-1259" y="-5207" />
<node id="n247" x="1262" y="-5421" />
<node id="n248" x="1303" y="-5416" />
<node id="n249" x="1379" y="-5186" />
<node id="n250" x="1366" y="-5194" />
<node id="n251" x="1818" y="-6083" />
<node id="n252" x="1827" y="-6108" />
<node id="n253" x="1476" y="-6752" />
<node id="n254" x="1492" y="-6755" />
<node id="n255" x="2314" y="-6045" />
<node id="n256" x="2313" y="-6070" />
<node id="n257" x="2312" y="-6086" />
<node id="n258" x="2885" y="-5987" />
<node id="n259" x="2878" y="-5990" />
<node id="n260" x="2312" y="-6086" />
<node id="n261" x="2885" y="-5987" />
<node id="n262" x="2931" y="-6003" />
<node id="n263" x="3335" y="-5462" />
<node id="n264" x="3166" y="-5539" />
<node id="n265" x="3118" y="-5557" />
<node id="n266" x="2375" y="-5690" />
<node id="n267" x="940" y="-3609" />
<node id="n268" x="916" y="-3487" />
<node id="n269" x="3226" y="-5359" />
<node id="n270" x="3243" y="-5382" />
<node id="n271" x="3335" y="-5462" />
<node id="n272" x="1956" y="-5716" />
<node id="n273" x="2045" y="-5710" />
<node id="n274" x="2375" y="-5690" />
<node id="n275" x="654" y="-2617" />
<node id="n276" x="664" y="-2655" />
<node id="n277" x="3036" y="-4678" />
<node id="n278" x="3045" y="-4998" />
<node id="n279" x="3045" y="-4998" />
<node id="n280" x="3036" y="-4678" />
<node id="n281" x="3045" y="-4998" />
<node id="n282" x="3052" y="-5016" />
<node id="n283" x="3118" y="-5127" />
<node id="n284" x="3222" y="-5370" />
<node id="n285" x="-2162" y="-4943" />
<node id="n286" x="-2146" y="-5025" />
<node id="n287" x="-1270" y="-5248" />
<node id="n288" x="165" y="-5120" />
<node id="n289" x="147" y="-5124" />
<node id="n290" x="-1270" y="-5248" />
<node id="n291" x="3166" y="-5539" />
<node id="n292" x="3155" y="-5567" />
<node id="n293" x="3144" y="-5608" />
<node id="n294" x="3155" y="-5567" />
<node id="n295" x="3166" y="-5539" />
<node id="n296" x="3247" y="-5358" />
<node id="n297" x="3118" y="-5127" />
<node id="n298" x="2872" y="-5928" />
<node id="n299" x="2907" y="-5919" />
<node id="n300" x="3144" y="-5608" />
<node id="n301" x="1868" y="-5481" />
<node id="n302" x="1842" y="-5458" />
<node id="n303" x="2027" y="-6011" />
<node id="n304" x="2015" y="-5969" />
<node id="n305" x="1956" y="-5716" />
<node id="n306" x="1366" y="-5194" />
<node id="n307" x="1375" y="-5210" />
<node id="n308" x="1868" y="-5481" />
<node id="n309" x="1907" y="-5547" />
<node id="n310" x="1956" y="-5716" />
<node id="n311" x="2872" y="-5928" />
<node id="n312" x="2858" y="-5931" />
<node id="n313" x="2314" y="-6045" />
<node id="n314" x="2109" y="-5978" />
<node id="n315" x="2164" y="-6011" />
<node id="n316" x="2314" y="-6045" />
<node id="n317" x="1423" y="-4972" />
<node id="n318" x="1458" y="-4948" />
<node id="n319" x="1489" y="-4905" />
<node id="n320" x="1374" y="-2592" />
<node id="n321" x="1266" y="-2601" />
<node id="n322" x="1061" y="-2623" />
<node id="n323" x="1824" y="-4735" />
<node id="n324" x="1808" y="-4734" />
<node id="n325" x="1489" y="-4905" />
<node id="n326" x="654" y="-2617" />
<node id="n327" x="797" y="-2643" />
<node id="n328" x="1131" y="-2611" />
<node id="n329" x="1816" y="-4726" />
<node id="n330" x="1810" y="-4740" />
<node id="n331" x="1951" y="-4961" />
<node id="n332" x="2025" y="-5077" />
<node id="n333" x="2085" y="-5168" />
<node id="n334" x="2331" y="-5541" />
<node id="n335" x="1032" y="-4184" />
<node id="n336" x="1069" y="-4176" />
<node id="n337" x="1259" y="-4150" />
<node id="n338" x="1938" y="-4217" />
<node id="n339" x="2134" y="-4218" />
<node id="n340" x="2119" y="-4222" />
<node id="n341" x="1911" y="-4218" />
<node id="n342" x="1259" y="-4150" />
<node id="n343" x="2910" y="-3910" />
<node id="n344" x="2681" y="-4142" />
<node id="n345" x="2567" y="-4306" />
<node id="n346" x="2261" y="-4375" />
<node id="n347" x="2280" y="-4370" />
<node id="n348" x="2573" y="-4321" />
<node id="n349" x="2939" y="-3727" />
<node id="n350" x="2939" y="-3761" />
<node id="n351" x="2933" y="-3952" />
<node id="n352" x="2963" y="-4682" />
<node id="n353" x="2919" y="-2866" />
<node id="n354" x="2920" y="-2902" />
<node id="n355" x="2942" y="-3281" />
<node id="n356" x="2938" y="-3455" />
<node id="n357" x="2969" y="-5171" />
<node id="n358" x="2972" y="-5114" />
<node id="n359" x="2963" y="-4682" />
<node id="n360" x="2947" y="-3910" />
<node id="n361" x="2947" y="-3728" />
<node id="n362" x="2946" y="-3696" />
<node id="n363" x="2966" y="-3456" />
<node id="n364" x="2942" y="-3281" />
<node id="n365" x="1693" y="-3016" />
<node id="n366" x="1684" y="-3025" />
<node id="n367" x="1435" y="-3299" />
<node id="n368" x="1398" y="-3540" />
<node id="n369" x="1387" y="-3601" />
<node id="n370" x="1370" y="-3755" />
<node id="n371" x="1497" y="-4184" />
<node id="n372" x="1607" y="-4351" />
<node id="n373" x="1649" y="-4400" />
<node id="n374" x="971" y="-3707" />
<node id="n375" x="1029" y="-3693" />
<node id="n376" x="1168" y="-3663" />
<node id="n377" x="1401" y="-3596" />
<node id="n378" x="1435" y="-3299" />
<node id="n379" x="1414" y="-3261" />
<node id="n380" x="1092" y="-2597" />
<node id="n381" x="790" y="-1944" />
<node id="n382" x="777" y="-1839" />
<node id="n383" x="770" y="-1867" />
<node id="n384" x="795" y="-1958" />
<node id="n385" x="1113" y="-2636" />
<node id="n386" x="1859" y="-4632" />
<node id="n387" x="1845" y="-4620" />
<node id="n388" x="1633" y="-4381" />
<node id="n389" x="1601" y="-4339" />
<node id="n390" x="1497" y="-4184" />
<node id="n391" x="1379" y="-3734" />
<node id="n392" x="1401" y="-3596" />
<node id="n393" x="1409" y="-3538" />
<node id="n394" x="1455" y="-3332" />
<node id="n395" x="1789" y="-3464" />
<node id="n396" x="1752" y="-3472" />
<node id="n397" x="1398" y="-3540" />
<node id="n398" x="1128" y="-3575" />
<node id="n399" x="1147" y="-3667" />
<node id="n400" x="1556" y="-4054" />
<node id="n401" x="1592" y="-4096" />
<node id="n402" x="1658" y="-4201" />
<node id="n403" x="1878" y="-4548" />
<node id="n404" x="1872" y="-4568" />
<node id="n405" x="1847" y="-4634" />
<node id="n406" x="1814" y="-4741" />
<node id="n407" x="1824" y="-4732" />
<node id="n408" x="1861" y="-4625" />
<node id="n409" x="2427" y="-5387" />
<node id="n410" x="2425" y="-5379" />
<node id="n411" x="2229" y="-5074" />
<node id="n412" x="2096" y="-4866" />
<node id="n413" x="1932" y="-4624" />
<node id="n414" x="1646" y="-4185" />
<node id="n415" x="1104" y="-2" />
<node id="n416" x="1148" y="-42" />
<node id="n417" x="1146" y="-73" />
<node id="n418" x="1327" y="-337" />
<node id="n419" x="1320" y="-331" />
<node id="n420" x="1162" y="-54" />
<node id="n421" x="2218" y="-1509" />
<node id="n422" x="2228" y="-1510" />
<node id="n423" x="2938" y="-2081" />
<node id="n424" x="3758" y="-2267" />
<node id="n425" x="3748" y="-2265" />
<node id="n426" x="2947" y="-2069" />
<node id="n427" x="1327" y="-337" />
<node id="n428" x="1330" y="-359" />
<node id="n429" x="1700" y="-676" />
<node id="n430" x="1679" y="-672" />
<node id="n431" x="2179" y="-1203" />
<node id="n432" x="2165" y="-1206" />
<node id="n433" x="1710" y="-584" />
<node id="n434" x="1706" y="-606" />
<node id="n435" x="1683" y="-688" />
<node id="n436" x="1807" y="-1296" />
<node id="n437" x="1807" y="-1296" />
<node id="n438" x="1819" y="-1293" />
<node id="n439" x="1865" y="-1497" />
<node id="n440" x="1854" y="-1468" />
<node id="n441" x="1815" y="-1278" />
<node id="n442" x="1697" y="-671" />
<node id="n443" x="2509" y="-1378" />
<node id="n444" x="2515" y="-1383" />
<node id="n445" x="2643" y="-1389" />
<node id="n446" x="2643" y="-1389" />
<node id="n447" x="2645" y="-1408" />
<node id="n448" x="2656" y="-1508" />
<node id="n449" x="2652" y="-1459" />
<node id="n450" x="2880" y="-1226" />
<node id="n451" x="2842" y="-1268" />
<node id="n452" x="2643" y="-1389" />
<node id="n453" x="2383" y="-831" />
<node id="n454" x="2387" y="-843" />
<node id="n455" x="2453" y="-1169" />
<node id="n456" x="2459" y="-832" />
<node id="n457" x="2434" y="-824" />
<node id="n458" x="2383" y="-831" />
<node id="n459" x="2269" y="-855" />
<node id="n460" x="2509" y="-1378" />
<node id="n461" x="2501" y="-1315" />
<node id="n462" x="2462" y="-1140" />
<node id="n463" x="1978" y="-1798" />
<node id="n464" x="1982" y="-1816" />
<node id="n465" x="2117" y="-897" />
<node id="n466" x="2193" y="-879" />
<node id="n467" x="2271" y="-865" />
<node id="n468" x="2400" y="-834" />
<node id="n469" x="2072" y="-2685" />
<node id="n470" x="2072" y="-2667" />
<node id="n471" x="3286" y="-4535" />
<node id="n472" x="3308" y="-4550" />
<node id="n473" x="3330" y="-4563" />
<node id="n474" x="3539" y="-4709" />
<node id="n475" x="3908" y="-4975" />
<node id="n476" x="4106" y="-4986" />
<node id="n477" x="4062" y="-5002" />
<node id="n478" x="3908" y="-4975" />
<node id="n479" x="3539" y="-4709" />
<node id="n480" x="3330" y="-4563" />
<node id="n481" x="-856" y="-178" />
<node id="n482" x="-844" y="-176" />
<node id="n483" x="-279" y="83" />
<node id="n484" x="-296" y="57" />
<node id="n485" x="1356" y="-2113" />
<node id="n486" x="1321" y="-2112" />
<node id="n487" x="1106" y="-2126" />
<node id="n488" x="1138" y="-2122" />
<node id="n489" x="4722" y="801" />
<node id="n490" x="4756" y="809" />
<node id="n491" x="4795" y="824" />
<node id="n492" x="6331" y="1741" />
<node id="n493" x="4795" y="824" />
<node id="n494" x="3713" y="1109" />
<node id="n495" x="3680" y="1043" />
<node id="n496" x="3543" y="686" />
<node id="n497" x="3542" y="439" />
<node id="n498" x="3535" y="459" />
<node id="n499" x="3554" y="679" />
<node id="n500" x="3874" y="2173" />
<node id="n501" x="3680" y="1043" />
<node id="n502" x="3713" y="1109" />
<node id="n503" x="3160" y="907" />
<node id="n504" x="3174" y="899" />
<node id="n505" x="3303" y="826" />
<node id="n506" x="3554" y="679" />
<node id="n507" x="3543" y="686" />
<node id="n508" x="3300" y="854" />
<node id="n509" x="3160" y="907" />
<node id="n510" x="3153" y="913" />
<node id="n511" x="2886" y="1420" />
<node id="n512" x="2934" y="1352" />
<node id="n513" x="2886" y="1420" />
<node id="n514" x="2972" y="1495" />
<node id="n515" x="3862" y="2172" />
<node id="n516" x="2232" y="2402" />
<node id="n517" x="2151" y="1300" />
<node id="n518" x="2159" y="1361" />
<node id="n519" x="615" y="2084" />
<node id="n520" x="190" y="1765" />
<node id="n521" x="211" y="1777" />
<node id="n522" x="-1403" y="1929" />
<node id="n523" x="-1554" y="1784" />
<node id="n524" x="-1727" y="1737" />
<node id="n525" x="-1703" y="1733" />
<node id="n526" x="-1554" y="1784" />
<node id="n527" x="-2580" y="2548" />
<node id="n528" x="-2154" y="1882" />
<node id="n529" x="2791" y="-51" />
<node id="n530" x="2769" y="-54" />
<node id="n531" x="2301" y="-271" />
<node id="n532" x="1736" y="-200" />
<node id="n533" x="1104" y="11" />
<node id="n534" x="221" y="-48" />
<node id="n535" x="2" y="-17" />
<node id="n536" x="34" y="-25" />
<node id="n537" x="221" y="-60" />
<node id="n538" x="1200" y="-23" />
<node id="n539" x="1808" y="-235" />
<node id="n540" x="2239" y="-299" />
<node id="n541" x="-1233" y="-2244" />
<node id="n542" x="-1204" y="-2229" />
<node id="n543" x="-944" y="-1747" />
<node id="n544" x="-963" y="-1754" />
<node id="n545" x="1302" y="-5397" />
<node id="n546" x="1276" y="-5433" />
<node id="n547" x="1145" y="-6087" />
<node id="n548" x="1038" y="-6287" />
<node id="n549" x="1057" y="-6268" />
<node id="n550" x="1164" y="-6093" />
<node id="n551" x="-2397" y="-4898" />
<node id="n552" x="-2154" y="-4993" />
<node id="n553" x="871" y="-4932" />
<node id="n554" x="854" y="-4927" />
<node id="n555" x="-2476" y="1892" />
<node id="n556" x="-2463" y="1899" />
<node id="n557" x="-2555" y="2462" />
<node id="n558" x="2151" y="1300" />
<node id="n559" x="2129" y="1304" />
<node id="n560" x="1610" y="1282" />
<node id="n561" x="1169" y="394" />
<node id="n562" x="1257" y="538" />
<node id="n563" x="1610" y="1282" />
<node id="n564" x="3518" y="2038" />
<node id="n565" x="2886" y="1420" />
<node id="n566" x="2286" y="2455" />
<node id="n567" x="2151" y="1300" />
<node id="n568" x="1851" y="-152" />
<node id="n569" x="4458" y="-2586" />
<node id="n570" x="4503" y="-2416" />
<node id="n571" x="3554" y="679" />
<node id="n572" x="3543" y="686" />
<node id="n573" x="2886" y="1420" />
<node id="n574" x="1788" y="-402" />
<node id="n575" x="1792" y="-389" />
<node id="n576" x="1875" y="-127" />
<node id="n577" x="2151" y="1300" />
<node id="n578" x="4059" y="-1233" />
<node id="n579" x="4077" y="-1255" />
<node id="n580" x="-753" y="-626" />
<node id="n581" x="-774" y="-519" />
<node id="n582" x="6331" y="1741" />
<node id="n583" x="4722" y="801" />
<node id="n584" x="-2328" y="-2794" />
<node id="n585" x="-2318" y="-2783" />
<node id="n586" x="-629" y="-1300" />
<node id="n587" x="-641" y="-1319" />
<node id="n588" x="4324" y="775" />
<node id="n589" x="4500" y="786" />
<node id="n590" x="4722" y="801" />
<node id="n591" x="-519" y="635" />
<node id="n592" x="-634" y="576" />
<node id="n593" x="4507" y="797" />
<node id="n594" x="4324" y="786" />
<node id="n595" x="2769" y="-54" />
<node id="n596" x="-1727" y="1746" />
<node id="n597" x="-1703" y="1733" />
<node id="n598" x="-1150" y="2151" />
<node id="n599" x="2697" y="-79" />
<node id="n600" x="2713" y="-83" />
<node id="n601" x="2823" y="-80" />
<node id="n602" x="2086" y="-535" />
<node id="n603" x="2089" y="-490" />
<node id="n604" x="2326" y="-265" />
<node id="n605" x="2293" y="-220" />
<node id="n606" x="1311" y="-4574" />
<node id="n607" x="1312" y="-4562" />
<node id="n608" x="1061" y="-2623" />
<node id="n609" x="3542" y="439" />
<node id="n610" x="3535" y="459" />
<node id="n611" x="3554" y="679" />
<node id="n612" x="3709" y="1059" />
<node id="n613" x="4079" y="725" />
<node id="n614" x="4028" y="760" />
<node id="n615" x="3680" y="1043" />
<node id="n616" x="3543" y="686" />
<node id="n617" x="208" y="-1912" />
<node id="n618" x="223" y="-1935" />
<node id="n619" x="1082" y="-2653" />
<node id="n620" x="-1145" y="1308" />
<node id="n621" x="-1086" y="1280" />
<node id="n622" x="-946" y="972" />
<node id="n623" x="-618" y="872" />
<node id="n624" x="-632" y="870" />
<node id="n625" x="-946" y="972" />
<node id="n626" x="1366" y="-5194" />
<node id="n627" x="1274" y="-5406" />
<node id="n628" x="922" y="-6003" />
<node id="n629" x="925" y="-5990" />
<node id="n630" x="3374" y="-4481" />
<node id="n631" x="3358" y="-4480" />
<node id="n632" x="3285" y="-4480" />
<node id="n633" x="2405" y="-4514" />
<node id="n634" x="3285" y="-4480" />
<node id="n635" x="602" y="-1930" />
<node id="n636" x="577" y="-1943" />
<node id="n637" x="1963" y="-4178" />
<node id="n638" x="1942" y="-4194" />
<node id="n639" x="1736" y="-4509" />
<node id="n640" x="871" y="-2193" />
<node id="n641" x="839" y="-2177" />
<node id="n642" x="1426" y="-4614" />
<node id="n643" x="1500" y="-4528" />
<node id="n644" x="1739" y="-4505" />
<node id="n645" x="4625" y="1053" />
<node id="n646" x="4420" y="799" />
<node id="n647" x="4073" y="-74" />
<node id="n648" x="4077" y="-55" />
<node id="n649" x="3374" y="-4481" />
<node id="n650" x="3372" y="-4507" />
<node id="n651" x="3330" y="-4563" />
<node id="n652" x="3296" y="-4603" />
<node id="n653" x="3304" y="-4597" />
<node id="n654" x="3330" y="-4563" />
<node id="n655" x="1670" y="-2758" />
<node id="n656" x="1689" y="-2756" />
<node id="n657" x="1935" y="-2791" />
<node id="n658" x="1906" y="-2782" />
<node id="n659" x="-1808" y="1391" />
<node id="n660" x="-1835" y="1377" />
<node id="n661" x="-2263" y="1162" />
<node id="n662" x="-2189" y="1210" />
<node id="n663" x="4107" y="-2358" />
<node id="n664" x="4069" y="-2341" />
<node id="n665" x="3846" y="-2269" />
<node id="n666" x="3748" y="-2265" />
<node id="n667" x="3758" y="-2267" />
<node id="n668" x="3945" y="-2329" />
<node id="n669" x="764" y="-4768" />
<node id="n670" x="657" y="-4799" />
<node id="n671" x="545" y="-4938" />
<node id="n672" x="543" y="-4924" />
<node id="n673" x="2312" y="-6086" />
<node id="n674" x="2294" y="-6083" />
<node id="n675" x="2027" y="-6011" />
<node id="n676" x="1818" y="-6083" />
<node id="n677" x="1834" y="-6074" />
<node id="n678" x="2027" y="-6011" />
<node id="n679" x="3731" y="-4938" />
<node id="n680" x="3668" y="-4893" />
<node id="n681" x="3512" y="-4749" />
<node id="n682" x="3296" y="-4603" />
<node id="n683" x="3314" y="-4612" />
<node id="n684" x="3497" y="-4768" />
<node id="n685" x="4275" y="-4578" />
<node id="n686" x="4296" y="-4569" />
<node id="n687" x="4106" y="-4986" />
<node id="n688" x="4162" y="-4951" />
<node id="n689" x="1374" y="-5005" />
<node id="n690" x="1380" y="-5124" />
<node id="n691" x="1409" y="-5169" />
<node id="n692" x="1504" y="-5320" />
<node id="n693" x="1464" y="-5253" />
<node id="n694" x="1409" y="-5169" />
<node id="n695" x="2427" y="-5387" />
<node id="n696" x="2430" y="-5428" />
<node id="n697" x="2375" y="-5690" />
<node id="n698" x="1691" y="-5133" />
<node id="n699" x="1540" y="-4894" />
<node id="n700" x="1554" y="-4918" />
<node id="n701" x="1691" y="-5133" />
<node id="n702" x="2446" y="-6020" />
<node id="n703" x="2442" y="-5992" />
<node id="n704" x="2375" y="-5690" />
<node id="n705" x="1610" y="-4344" />
<node id="n706" x="1596" y="-4348" />
<node id="n707" x="1286" y="-4345" />
<node id="n708" x="1032" y="-4184" />
<node id="n709" x="578" y="-3927" />
<node id="n710" x="618" y="-3948" />
<node id="n711" x="1032" y="-4184" />
<node id="n712" x="1296" y="-4310" />
<node id="n713" x="2923" y="-3898" />
<node id="n714" x="2910" y="-3910" />
<node id="n715" x="2642" y="-4299" />
<node id="n716" x="2656" y="-4290" />
<node id="n717" x="2939" y="-3727" />
<node id="n718" x="2947" y="-3728" />
<node id="n719" x="3519" y="-3711" />
<node id="n720" x="3462" y="-3671" />
<node id="n721" x="2451" y="-2882" />
<node id="n722" x="2421" y="-2919" />
<node id="n723" x="2942" y="-3281" />
<node id="n724" x="2898" y="-3271" />
<node id="n725" x="3388" y="-3477" />
<node id="n726" x="3362" y="-3466" />
<node id="n727" x="3482" y="-3215" />
<node id="n728" x="3460" y="-3195" />
<node id="n729" x="3289" y="-3028" />
<node id="n730" x="3293" y="-3042" />
<node id="n731" x="2966" y="-3456" />
<node id="n732" x="3032" y="-3455" />
<node id="n733" x="2583" y="-2473" />
<node id="n734" x="2595" y="-2500" />
<node id="n735" x="2610" y="-2571" />
<node id="n736" x="461" y="360" />
<node id="n737" x="428" y="370" />
<node id="n738" x="339" y="402" />
<node id="n739" x="196" y="443" />
<node id="n740" x="2451" y="-2882" />
<node id="n741" x="2459" y="-2872" />
<node id="n742" x="2600" y="-2525" />
<node id="n743" x="29" y="1002" />
<node id="n744" x="47" y="979" />
<node id="n745" x="182" y="791" />
<node id="n746" x="196" y="443" />
<node id="n747" x="22" y="-4" />
<node id="n748" x="6" y="29" />
<node id="n749" x="198" y="452" />
<node id="n750" x="182" y="791" />
<node id="n751" x="86" y="512" />
<node id="n752" x="112" y="489" />
<node id="n753" x="198" y="452" />
<node id="n754" x="339" y="402" />
<node id="n755" x="339" y="402" />
<node id="n756" x="402" y="455" />
<node id="n757" x="538" y="633" />
<node id="n758" x="522" y="607" />
<node id="n759" x="538" y="633" />
<node id="n760" x="556" y="664" />
<node id="n761" x="727" y="1188" />
<node id="n762" x="630" y="2069" />
<node id="n763" x="727" y="1188" />
<node id="n764" x="1144" y="-63" />
<node id="n765" x="1169" y="-66" />
<node id="n766" x="1325" y="-99" />
<node id="n767" x="2318" y="-4254" />
<node id="n768" x="2302" y="-4250" />
<node id="n769" x="2208" y="-4263" />
<node id="n770" x="2259" y="-4256" />
<node id="n771" x="1465" y="-2" />
<node id="n772" x="1465" y="-37" />
<node id="n773" x="1325" y="-99" />
<node id="n774" x="2318" y="-4254" />
<node id="n775" x="2325" y="-4289" />
<node id="n776" x="2338" y="-4315" />
<node id="n777" x="2330" y="-4303" />
<node id="n778" x="2218" y="-1509" />
<node id="n779" x="2218" y="-1538" />
<node id="n780" x="2115" y="-1769" />
<node id="n781" x="2134" y="-1763" />