<?xml version="1.0" encoding="UTF-8"?>

<!-- generated on 02/28/22 16:43:35 by Eclipse SUMO duarouter Version 1.7.0
<configuration xmlns:xsi="http://www.w3.org/2001/XMLSchema-instance" xsi:noNamespaceSchemaLocation="http://sumo.dlr.de/xsd/duarouterConfiguration.xsd">

    <input>
        <net-file value="here.net.xml"/>
        <route-files value="here.trips.rou.xml"/>
    </input>

    <output>
        <output-file value="here.rou.xml"/>
        <alternatives-output value="here.rou.alt.xml"/>
    </output>

    <report>
        <ignore-errors value="true"/>
    </report>

</configuration>
-->

<routes xmlns:xsi="http://www.w3.org/2001/XMLSchema-instance" xsi:noNamespaceSchemaLocation="http://sumo.dlr.de/xsd/routes_file.xsd">
    <vType id="random" vClass="passenger" color="blue"/>
    <vehicle id="randUni1253:1" type="random" depart="16.00" departPos="0.14" arrivalPos="122.97" arrivalSpeed="0.00">
        <route edges="741to740 740to741 741to147 147to180 180to181 181to422 422to167 167to168 168to169 169to431 431to432 432to435 435to152 152to430 430to418 418to419 419to420 420to537 537to220 220to534 534to746 746to745 745to744 744to750"/>
    </vehicle>
    <vehicle id="randUni941:1" type="random" depart="89.00" departPos="6.06" arrivalPos="305.29" arrivalSpeed="0.00">
        <route edges="698to699 699to319 319to405 405to373 373to372 372to371 371to370 370to369 369to368 368to397 397to619 619to52 52to380 380to108 108to221 221to220 220to534 534to0 0to1 1to2 2to483 483to10 10to9 9to8 8to25"/>
    </vehicle>
    <vehicle id="randUni2250:1" type="random" depart="168.00" departPos="500.12" arrivalPos="56.82" arrivalSpeed="0.00">
        <route edges="829to682 682to820 820to819 819to727 727to830 830to727"/>
    </vehicle>
    <vehicle id="randUni871:1" type="random" depart="222.00" departPos="0.17" arrivalPos="215.80" arrivalSpeed="0.00">
        <route edges="808to74 74to332 332to65 65to66 66to67 67to68 68to69 69to828 828to829 829to351 351to350 350to349 349to356 356to355 355to723 723to724 724to735 735to734 734to733 733to175 175to182 182to183 183to858 858to857 857to30 30to601 601to33 33to496"/>
    </vehicle>
    <vehicle id="randUni1518:1" type="random" depart="285.00" departPos="188.79" arrivalPos="698.88" arrivalSpeed="0.00">
        <route edges="160to153 153to152 152to162 162to574 574to575 575to576 576to157 157to164"/>
    </vehicle>
    <vehicle id="randUni2384:1" type="random" depart="360.00" departPos="266.42" arrivalPos="413.85" arrivalSpeed="0.00">
        <route edges="718to820 820to819 819to728 728to208 208to207 207to425 425to174 174to187 187to188 188to447"/>
    </vehicle>
    <vehicle id="randUni1630:1" type="random" depart="409.00" departPos="17.72" arrivalPos="55.21" arrivalSpeed="0.00">
        <route edges="356to355 355to723 723to724 724to735 735to734 734to733 733to175 175to182 182to183 183to858 858to857 857to30 30to31 31to32 32to497 497to498 498to499"/>
    </vehicle>
    <vehicle id="randUni655:1" type="random" depart="446.00" departPos="399.41" arrivalPos="591.93" arrivalSpeed="0.00">
        <route edges="207to423 423to422 422to167 167to168 168to169 169to431 431to432 432to435 435to152 152to430 430to418 418to419 419to420 420to537 537to220 220to534 534to533"/>
    </vehicle>
    <vehicle id="randUni801:1" type="random" depart="653.00" departPos="551.65" arrivalPos="188.28" arrivalSpeed="0.00">
        <route edges="552to800 800to551 551to552 552to802 802to88 88to318 318to319 319to405 405to373 373to372 372to371 371to390 390to391 391to392 392to393 393to394 394to146 146to464 464to138 138to780 780to781 781to167 167to168 168to169 169to170 170to530 530to41 41to40 40to497 497to33 33to496"/>
    </vehicle>
    <vehicle id="randUni2226:1" type="random" depart="671.00" departPos="334.61" arrivalPos="0.14" arrivalSpeed="0.00">
        <route edges="832to579 579to817 817to783 783to784 784to206 206to205 205to204 204to203 203to202 202to583"/>
    </vehicle>
    <vehicle id="randUni132:1" type="random" depart="830.00" departPos="637.32" arrivalPos="178.26" arrivalSpeed="0.00">
        <route edges="576to516 516to142 142to143 143to144 144to761 761to760 760to759 759to757 757to758 758to738 738to746 746to0 0to1 1to2 2to3 3to4 4to125 125to591 591to822 822to127 127to528"/>
    </vehicle>
    <vehicle id="randUni138:1" type="random" depart="1028.00" departPos="134.15" arrivalPos="14.23" arrivalSpeed="0.00">
        <route edges="65to410 410to411 411to413 413to341 341to619 619to52 52to380 380to108 108to221 221to220 220to534 534to0 0to1 1to2 2to3 3to4 4to5 5to622 622to621"/>
    </vehicle>
    <vehicle id="randUni2528:1" type="random" depart="1200.00" departPos="463.82" arrivalPos="111.38" arrivalSpeed="0.00">
        <route edges="161to435 435to436 436to161 161to153 153to130 130to463 463to464 464to146 146to394 394to393 393to392 392to391 391to390 390to371 371to372 372to373 373to405 405to329 329to324 324to81 81to82 82to83 83to84 84to670 670to84"/>
    </vehicle>
    <vehicle id="randUni578:1" type="random" depart="1244.00" departPos="163.37" arrivalPos="398.36" arrivalSpeed="0.00">
        <route edges="390to341 341to340 340to339 339to228 228to229 229to230 230to828 828to829 829to97 97to280"/>
    </vehicle>
    <vehicle id="randUni1628:1" type="random" depart="1301.00" departPos="1865.31" arrivalPos="34.57" arrivalSpeed="0.00">
        <route edges="537to219 219to132 132to485 485to131 131to153 153to161 161to438 438to178 178to177 177to176 176to530 530to41 41to40 40to39 39to38 38to613 613to594 594to38"/>
    </vehicle>
    <vehicle id="randUni180:1" type="random" depart="1328.00" departPos="151.89" arrivalPos="999.36" arrivalSpeed="0.00">
        <route edges="363to208 208to147 147to146 146to215 215to365 365to366 366to385 385to327 327to607"/>
    </vehicle>
    <vehicle id="randUni2294:1" type="random" depart="1432.00" departPos="49.45" arrivalPos="4.51" arrivalSpeed="0.00">
        <route edges="746to738 738to746 746to534 534to533 533to532 532to531 531to603 603to170 170to603"/>
    </vehicle>
    <vehicle id="randUni1695:1" type="random" depart="1435.00" departPos="39.45" arrivalPos="130.09" arrivalSpeed="0.00">
        <route edges="588to35 35to588 588to589 589to201 201to200 200to199 199to198 198to197 197to196 196to195 195to363 363to362 362to361 361to717 717to349 349to350 350to713 713to714 714to343 343to344 344to345 345to230"/>
    </vehicle>
    <vehicle id="randUni2177:1" type="random" depart="1473.00" departPos="8.29" arrivalPos="50.86" arrivalSpeed="0.00">
        <route edges="661to662 662to124 124to592 592to26"/>
    </vehicle>
    <vehicle id="randUni721:1" type="random" depart="1624.00" departPos="7.16" arrivalPos="274.01" arrivalSpeed="0.00">
        <route edges="449to448 448to189 189to167 167to421 421to778 778to779 779to138 138to464 464to146 146to215 215to365 365to366 366to378 378to379 379to52"/>
    </vehicle>
    <vehicle id="randUni1872:1" type="random" depart="1675.00" departPos="5.89" arrivalPos="46.86" arrivalSpeed="0.00">
        <route edges="53to52 52to619 619to397 397to368 368to369 369to370 370to371 371to372 372to373 373to644"/>
    </vehicle>
    <vehicle id="randUni1452:1" type="random" depart="1772.00" departPos="1.37" arrivalPos="61.78" arrivalSpeed="0.00">
        <route edges="774to777 777to776 776to345 345to210 210to89 89to410 410to409 409to704 704to697 697to316 316to255 255to256 256to673 673to674 674to677"/>
    </vehicle>
    <vehicle id="randUni820:1" type="random" depart="1825.00" departPos="286.97" arrivalPos="269.69" arrivalSpeed="0.00">
        <route edges="413to414 414to413 413to412 412to89 89to210 210to209 209to829 829to277 277to297"/>
    </vehicle>
    <vehicle id="randUni223:1" type="random" depart="1844.00" departPos="26.15" arrivalPos="0.46" arrivalSpeed="0.00">
        <route edges="613to37 37to594 594to788 788to787 787to183 183to174 174to423 423to175 175to742 742to741 741to740"/>
    </vehicle>
    <vehicle id="randUni166:1" type="random" depart="2240.00" departPos="65.21" arrivalPos="0.20" arrivalSpeed="0.00">
        <route edges="270to295 295to296 296to297 297to279 279to829 829to209"/>
    </vehicle>
    <vehicle id="randUni386:1" type="random" depart="2248.00" departPos="0.33" arrivalPos="541.12" arrivalSpeed="0.00">
        <route edges="249to626 626to803 803to61 61to619 619to52 52to133 133to132 132to131 131to153 153to161 161to438 438to178 178to177 177to176 176to530 530to41 41to40 40to39 39to594 594to40"/>
    </vehicle>
    <vehicle id="randUni2534:1" type="random" depart="2279.00" departPos="0.16" arrivalPos="0.38" arrivalSpeed="0.00">
        <route edges="303to678 678to310 310to305 305to301 301to302 302to845 845to64 64to331 331to330 330to405 405to404 404to387 387to386"/>
    </vehicle>
    <vehicle id="randUni2150:1" type="random" depart="2284.00" departPos="21.61" arrivalPos="208.25" arrivalSpeed="0.00">
        <route edges="772to771 771to766 766to773 773to419 419to418 418to427 427to428 428to161 161to153 153to131 131to132 132to133 133to52 52to619 619to341 341to413 413to408 408to412"/>
    </vehicle>
    <vehicle id="randUni1606:1" type="random" depart="2448.00" departPos="276.22" arrivalPos="23.52" arrivalSpeed="0.00">
        <route edges="219to218 218to132 132to485 485to131 131to153 153to161 161to432 432to431 431to169 169to465 465to466"/>
    </vehicle>
    <vehicle id="randUni414:1" type="random" depart="2466.00" departPos="1039.88" arrivalPos="320.21" arrivalSpeed="0.00">
        <route edges="527to823 823to822 822to125 125to4 4to3 3to2 2to1 1to0 0to534 534to220 220to221 221to382 382to383 383to384 384to385 385to367 367to368 368to369 369to370 370to371 371to372 372to373 373to405 405to329 329to324 324to81 81to82 82to83 83to84 84to288 288to289 289to241 241to287 287to241"/>
    </vehicle>
    <vehicle id="randUni1790:1" type="random" depart="2489.00" departPos="743.90" arrivalPos="88.80" arrivalSpeed="0.00">
        <route edges="267to276 276to275 275to608 608to321 321to322"/>
    </vehicle>
    <vehicle id="randUni1406:1" type="random" depart="2552.00" departPos="0.17" arrivalPos="151.43" arrivalSpeed="0.00">
        <route edges="383to382 382to383 383to384 384to133 133to132 132to131 131to153 153to152 152to162 162to574 574to575 575to576 576to563 563to517"/>
    </vehicle>
    <vehicle id="randUni170:1" type="random" depart="2574.00" departPos="8.62" arrivalPos="43.76" arrivalSpeed="0.00">
        <route edges="571to505 505to496 496to32 32to31 31to30 30to857 857to858 858to183 183to174 174to423 423to175 175to742 742to734 734to735 735to724 724to723 723to355 355to356 356to349 349to350 350to351 351to829 829to828 828to69 69to68 68to67 67to66 66to65 65to807 807to842"/>
    </vehicle>
    <vehicle id="randUni93:1" type="random" depart="2609.00" departPos="109.47" arrivalPos="55.60" arrivalSpeed="0.00">
        <route edges="711to342 342to337 337to338 338to228 228to229 229to230 230to101 101to98 98to652 652to653 653to473 473to479"/>
    </vehicle>
    <vehicle id="randUni841:1" type="random" depart="2663.00" departPos="0.16" arrivalPos="162.04" arrivalSpeed="0.00">
        <route edges="250to306 306to626 626to803 803to61 61to60 60to706 706to705 705to389 389to390"/>
    </vehicle>
    <vehicle id="randUni645:1" type="random" depart="2664.00" departPos="1279.11" arrivalPos="218.46" arrivalSpeed="0.00">
        <route edges="607to52 52to380 380to108 108to221 221to220 220to534 534to0 0to1 1to2 2to483 483to10 10to9 9to799 799to591"/>
    </vehicle>
    <vehicle id="randUni417:1" type="random" depart="2795.00" departPos="195.04" arrivalPos="0.09" arrivalSpeed="0.00">
        <route edges="589to493 493to589 589to601 601to30 30to857 857to445 445to452"/>
    </vehicle>
    <vehicle id="randUni1296:1" type="random" depart="2833.00" departPos="11.26" arrivalPos="0.50" arrivalSpeed="0.00">
        <route edges="752to751 751to739 739to746 746to534 534to220 220to537 537to219 219to218 218to217 217to216 216to215 215to214 214to213 213to212 212to211 211to210 210to209 209to829 829to649 649to650"/>
    </vehicle>
    <vehicle id="randUni1564:1" type="random" depart="3006.00" departPos="7.65" arrivalPos="20.45" arrivalSpeed="0.00">
        <route edges="103to102 102to119 119to118 118to113 113to618 618to619 619to341 341to413 413to411 411to77"/>
    </vehicle>
    <vehicle id="randUni2041:1" type="random" depart="3038.00" departPos="351.36" arrivalPos="80.50" arrivalSpeed="0.00">
        <route edges="592to827 827to29 29to481 481to482 482to11 11to12 12to535 535to536 536to537 537to219 219to218 218to217 217to216 216to215 215to214 214to213 213to212 212to211 211to210 210to209 209to829 829to479 479to650"/>
    </vehicle>
    <vehicle id="randUni2312:1" type="random" depart="3181.00" departPos="76.36" arrivalPos="0.03" arrivalSpeed="0.00">
        <route edges="483to10 10to11 11to12 12to535 535to536 536to220 220to221 221to382 382to383 383to384 384to51 51to607 607to43 43to42 42to847 847to302 302to301 301to305 305to304 304to303 303to675 675to678"/>
    </vehicle>
    <vehicle id="randUni1413:1" type="random" depart="3190.00" departPos="8.77" arrivalPos="153.20" arrivalSpeed="0.00">
        <route edges="280to100 100to99 99to820 820to819 819to727 727to818"/>
    </vehicle>
    <vehicle id="randUni1859:1" type="random" depart="3269.00" departPos="0.06" arrivalPos="0.11" arrivalSpeed="0.00">
        <route edges="83to88 88to319 319to405 405to373 373to372 372to371 371to390 390to391 391to392 392to393 393to394 394to146 146to464 464to138 138to780 780to781 781to167 167to168 168to169 169to170 170to530 530to41 41to40 40to496 496to572 572to507 507to496"/>
    </vehicle>
    <vehicle id="randUni2276:1" type="random" depart="3338.00" departPos="201.57" arrivalPos="0.14" arrivalSpeed="0.00">
        <route edges="121to641 641to640 640to380 380to52 52to135 135to218 218to217 217to216 216to215 215to214 214to213 213to212 212to211 211to210 210to209 209to829 829to277 277to280"/>
    </vehicle>
    <vehicle id="randUni2494:1" type="random" depart="3409.00" departPos="0.17" arrivalPos="0.11" arrivalSpeed="0.00">
        <route edges="595to530 530to599 599to600 600to857 857to858 858to183 183to174 174to423 423to175 175to742 742to734 734to735 735to724 724to723 723to355 355to356 356to717 717to349 349to717"/>
    </vehicle>
    <vehicle id="randUni996:1" type="random" depart="3513.00" departPos="128.86" arrivalPos="7.96" arrivalSpeed="0.00">
        <route edges="598to522 522to523 523to822 822to125 125to4 4to3 3to2 2to1 1to0 0to534 534to220 220to221 221to382 382to383 383to384 384to385 385to367 367to368 368to369 369to370 370to371 371to372 372to373 373to405 405to330 330to331 331to807 807to74"/>
    </vehicle>
    <vehicle id="randUni632:1" type="random" depart="3617.00" departPos="20.28" arrivalPos="268.86" arrivalSpeed="0.00">
        <route edges="706to371 371to337 337to388"/>
    </vehicle>
    <vehicle id="randUni2601:1" type="random" depart="3700.00" departPos="76.37" arrivalPos="1345.35" arrivalSpeed="0.00">
        <route edges="737to738 738to746 746to0 0to1 1to2 2to483 483to484 484to592 592to799"/>
    </vehicle>
    <vehicle id="randUni315:1" type="random" depart="3765.00" departPos="528.05" arrivalPos="8.84" arrivalSpeed="0.00">
        <route edges="26to8 8to9 9to10 10to11 11to12 12to535 535to536 536to537 537to219 219to218 218to217 217to216 216to215 215to214 214to213 213to212 212to211 211to210 210to209 209to829 829to652 652to653 653to651"/>
    </vehicle>
    <vehicle id="randUni2626:1" type="random" depart="3792.00" departPos="202.15" arrivalPos="550.22" arrivalSpeed="0.00">
        <route edges="620to625 625to622 622to5 5to4 4to3 3to483 483to11 11to12 12to535 535to536 536to537 537to538 538to539 539to540 540to788 788to787 787to786 786to785 785to784 784to783 783to782 782to832 832to570 570to834"/>
    </vehicle>
    <vehicle id="randUni1256:1" type="random" depart="3805.00" departPos="150.05" arrivalPos="21.12" arrivalSpeed="0.00">
        <route edges="28to592 592to484 484to483 483to11 11to12 12to535 535to536 536to537 537to415 415to416 416to764 764to417 417to427 427to428 428to435 435to432 432to431 431to168 168to167 167to422 422to174 174to183 183to173"/>
    </vehicle>
    <vehicle id="randUni668:1" type="random" depart="3873.00" departPos="25.01" arrivalPos="172.71" arrivalSpeed="0.00">
        <route edges="332to842 842to331 331to73"/>
    </vehicle>
    <vehicle id="randUni1379:1" type="random" depart="3901.00" departPos="37.65" arrivalPos="51.71" arrivalSpeed="0.00">
        <route edges="664to663 663to783 783to782 782to832 832to831 831to727 727to830 830to829 829to828 828to69 69to68 68to67 67to66 66to808 808to74 74to844 844to845 845to846 846to847 847to692 692to693"/>
    </vehicle>
    <vehicle id="randUni1757:1" type="random" depart="4040.00" departPos="20.40" arrivalPos="169.89" arrivalSpeed="0.00">
        <route edges="652to651 651to98 98to101 101to210 210to211 211to212 212to213 213to214 214to215 215to216 216to217 217to218 218to219 219to537 537to536 536to535 535to12 12to11 11to482 482to24 24to23"/>
    </vehicle>
    <vehicle id="randUni220:1" type="random" depart="4041.00" departPos="585.53" arrivalPos="445.74" arrivalSpeed="0.00">
        <route edges="799to4 4to591 591to8 8to7 7to597"/>
    </vehicle>
    <vehicle id="randUni2006:1" type="random" depart="4210.00" departPos="0.03" arrivalPos="0.19" arrivalSpeed="0.00">
        <route edges="801to552 552to802 802to88 88to318 318to319 319to405 405to373 373to372 372to371 371to390 390to391 391to392 392to393 393to394 394to146 146to464 464to463 463to130 130to153 153to152 152to162 162to574 574to163 163to576 576to148 148to558"/>
    </vehicle>
    <vehicle id="randUni1415:1" type="random" depart="4268.00" departPos="182.03" arrivalPos="117.31" arrivalSpeed="0.00">
        <route edges="413to341 341to619 619to134 134to133"/>
    </vehicle>
    <vehicle id="randUni1675:1" type="random" depart="4307.00" departPos="9.39" arrivalPos="115.91" arrivalSpeed="0.00">
        <route edges="44to706 706to705 705to388 388to387 387to386 386to408 408to412 412to411 411to66 66to840 840to811 811to67"/>
    </vehicle>
    <vehicle id="randUni1505:1" type="random" depart="4351.00" departPos="7.50" arrivalPos="162.30" arrivalSpeed="0.00">
        <route edges="668to783 783to782 782to832 832to831 831to727 727to819 819to820 820to632 632to98"/>
    </vehicle>
    <vehicle id="randUni2028:1" type="random" depart="4445.00" departPos="874.93" arrivalPos="0.18" arrivalSpeed="0.00">
        <route edges="558to156 156to164 164to575 575to162 162to152 152to430"/>
    </vehicle>
    <vehicle id="randUni663:1" type="random" depart="4484.00" departPos="382.34" arrivalPos="1297.13" arrivalSpeed="0.00">
        <route edges="652to820 820to732 732to731 731to363 363to722 722to721 721to740 740to741 741to147 147to180 180to181 181to422 422to167 167to168 168to169 169to431 431to432 432to435 435to152 152to430 430to418 418to419 419to420 420to537 537to536 536to535 535to12 12to11 11to10 10to9 9to799 799to25"/>
    </vehicle>
    <vehicle id="randUni52:1" type="random" depart="4508.00" departPos="1.70" arrivalPos="199.89" arrivalSpeed="0.00">
        <route edges="496to609 609to40 40to41 41to530 530to604 604to176 176to177 177to178 178to179 179to778 778to779 779to138 138to464 464to146 146to394 394to393 393to392 392to391 391to390 390to371 371to372 372to373 373to405 405to329 329to324 324to81 81to82 82to83 83to84 84to288 288to289 289to244 244to286 286to287"/>
    </vehicle>
    <vehicle id="randUni1047:1" type="random" depart="4614.00" departPos="94.85" arrivalPos="124.96" arrivalSpeed="0.00">
        <route edges="65to410 410to409 409to695 695to696 696to265 265to264 264to284"/>
    </vehicle>
    <vehicle id="randUni241:1" type="random" depart="4733.00" departPos="36.80" arrivalPos="0.13" arrivalSpeed="0.00">
        <route edges="805to64 64to808 808to66 66to67 67to68 68to69 69to828 828to829 829to351 351to350 350to349 349to356 356to355 355to723 723to724 724to735 735to734 734to733 733to175 175to423"/>
    </vehicle>
    <vehicle id="randUni2209:1" type="random" depart="4744.00" departPos="833.97" arrivalPos="0.03" arrivalSpeed="0.00">
        <route edges="567to164 164to575 575to162 162to152 152to153 153to131 131to132 132to133 133to618 618to617 617to118 118to119 119to107 107to106 106to105 105to543"/>
    </vehicle>
    <vehicle id="randUni2580:1" type="random" depart="4775.00" departPos="11.25" arrivalPos="0.06" arrivalSpeed="0.00">
        <route edges="56to55 55to56 56to57 57to58 58to337 337to373 373to405 405to330 330to331 331to74 74to808"/>
    </vehicle>
    <vehicle id="randUni1447:1" type="random" depart="4911.00" departPos="183.21" arrivalPos="269.34" arrivalSpeed="0.00">
        <route edges="836to648 648to835 835to200 200to199 199to198 198to197 197to196 196to195 195to363 363to362 362to361 361to717 717to718 718to829 829to828 828to69 69to70 70to840 840to72 72to410 410to78"/>
    </vehicle>
    <vehicle id="randUni917:1" type="random" depart="4927.00" departPos="0.07" arrivalPos="155.35" arrivalSpeed="0.00">
        <route edges="421to167 167to426 426to425 425to666 666to861 861to862 862to817 817to579 579to817"/>
    </vehicle>
    <vehicle id="randUni1282:1" type="random" depart="4999.00" departPos="666.07" arrivalPos="152.40" arrivalSpeed="0.00">
        <route edges="619to58 58to59 59to60 60to61 61to803 803to307 307to701 701to80 80to700"/>
    </vehicle>
    <vehicle id="randUni522:1" type="random" depart="5213.00" departPos="32.00" arrivalPos="165.77" arrivalSpeed="0.00">
        <route edges="675to310 310to305 305to301 301to302 302to845 845to74 74to808 808to66 66to67 67to68 68to69 69to828 828to829 829to351 351to350 350to349 349to356 356to355 355to723 723to724 724to735 735to734 734to733 733to175 175to182 182to183 183to858 858to857 857to30 30to601 601to616 616to572 572to512"/>
    </vehicle>
    <vehicle id="randUni772:1" type="random" depart="5247.00" departPos="0.20" arrivalPos="0.08" arrivalSpeed="0.00">
        <route edges="857to30 30to601 601to589 589to202 202to489"/>
    </vehicle>
    <vehicle id="randUni493:1" type="random" depart="5339.00" departPos="373.12" arrivalPos="9.68" arrivalSpeed="0.00">
        <route edges="307to308 308to309 309to310 310to678 678to260 260to315 315to255"/>
    </vehicle>
    <vehicle id="randUni2036:1" type="random" depart="5353.00" departPos="155.99" arrivalPos="64.70" arrivalSpeed="0.00">
        <route edges="377to376 376to392 392to393 393to394 394to215 215to214 214to213 213to212 212to211 211to212"/>
    </vehicle>
    <vehicle id="randUni269:1" type="random" depart="5440.00" departPos="61.40" arrivalPos="284.07" arrivalSpeed="0.00">
        <route edges="505to496 496to498 498to40 40to41 41to530 530to604 604to176 176to177 177to178 178to438 438to161 161to153 153to131 131to132 132to133 133to618 618to617 617to118 118to119 119to107 107to111"/>
    </vehicle>
    <vehicle id="randUni1037:1" type="random" depart="5460.00" departPos="36.69" arrivalPos="3.48" arrivalSpeed="0.00">
        <route edges="810to809 809to67 67to68 68to69 69to828 828to829 829to351 351to350 350to349 349to356 356to355 355to723 723to724 724to735 735to734 734to733 733to175 175to182 182to183 183to858 858to857 857to540"/>
    </vehicle>
    <vehicle id="randUni727:1" type="random" depart="5563.00" departPos="0.03" arrivalPos="0.47" arrivalSpeed="0.00">
        <route edges="406to407 407to373 373to372 372to371 371to390 390to391 391to392 392to393 393to394 394to146 146to464 464to463 463to130 130to153 153to152 152to162 162to575 575to574"/>
    </vehicle>
    <vehicle id="randUni397:1" type="random" depart="5574.00" departPos="3.11" arrivalPos="298.00" arrivalSpeed="0.00">
        <route edges="781to780 780to781 781to167 167to168 168to169 169to170 170to530 530to529 529to789 789to790 790to165 165to513 513to564"/>
    </vehicle>
    <vehicle id="randUni2030:1" type="random" depart="5623.00" departPos="2.66" arrivalPos="133.64" arrivalSpeed="0.00">
        <route edges="52to322 322to52 52to380 380to108 108to221 221to220 220to534 534to0 0to1 1to2 2to483 483to10 10to9 9to25"/>
    </vehicle>
    <vehicle id="randUni102:1" type="random" depart="5669.00" departPos="58.46" arrivalPos="62.81" arrivalSpeed="0.00">
        <route edges="263to295 295to296 296to297 297to277 277to280 280to98 98to359 359to360 360to361 361to362 362to363 363to195 195to196 196to197 197to198 198to199 199to200 200to835 835to200"/>
    </vehicle>
    <vehicle id="randUni2181:1" type="random" depart="5746.00" departPos="58.37" arrivalPos="0.16" arrivalSpeed="0.00">
        <route edges="149to164 164to166 166to165 165to565 565to503 503to504"/>
    </vehicle>
    <vehicle id="randUni1852:1" type="random" depart="5814.00" departPos="86.53" arrivalPos="376.74" arrivalSpeed="0.00">
        <route edges="26to8 8to9 9to10 10to11 11to12 12to535 535to536 536to220 220to221 221to382 382to383 383to384 384to385 385to367 367to368 368to369 369to370 370to371 371to372 372to373 373to405 405to329 329to324 324to81 81to82 82to83"/>
    </vehicle>
    <vehicle id="randUni2614:1" type="random" depart="5847.00" departPos="1.13" arrivalPos="19.01" arrivalSpeed="0.00">
        <route edges="523to596 596to822 822to125 125to4 4to3 3to2 2to1 1to0 0to534 534to220 220to221 221to108 108to380 380to52 52to619 619to341 341to413 413to411 411to66"/>
    </vehicle>
    <vehicle id="randUni1964:1" type="random" depart="5892.00" departPos="48.19" arrivalPos="41.13" arrivalSpeed="0.00">
        <route edges="615to507 507to496 496to498 498to40 40to41 41to530 530to604 604to176 176to531 531to532 532to533 533to534 534to0 0to1 1to2 2to3 3to4 4to125 125to591 591to822 822to8"/>
    </vehicle>
    <vehicle id="randUni2115:1" type="random" depart="5905.00" departPos="1024.31" arrivalPos="590.83" arrivalSpeed="0.00">
        <route edges="820to89 89to230 230to229 229to228 228to227 227to226 226to225 225to224 224to223 223to222 222to133 133to618 618to617 617to118 118to119 119to585 585to584 584to19 19to18"/>
    </vehicle>
    <vehicle id="randUni585:1" type="random" depart="5960.00" departPos="1224.42" arrivalPos="48.96" arrivalSpeed="0.00">
        <route edges="158to564 564to573 573to165 165to166 166to164 164to163 163to162 162to152 152to153 153to131 131to132 132to133 133to135 135to51 51to54 54to619"/>
    </vehicle>
    <vehicle id="randUni661:1" type="random" depart="5980.00" departPos="335.95" arrivalPos="67.81" arrivalSpeed="0.00">
        <route edges="682to829 829to820 820to819 819to730"/>
    </vehicle>
    <vehicle id="randUni1610:1" type="random" depart="5989.00" departPos="87.73" arrivalPos="482.91" arrivalSpeed="0.00">
        <route edges="361to360 360to716 716to715 715to348 348to347 347to346 346to229 229to228 228to339 339to340 340to341 341to619 619to52 52to379"/>
    </vehicle>
    <vehicle id="randUni1877:1" type="random" depart="6055.00" departPos="1.80" arrivalPos="209.77" arrivalSpeed="0.00">
        <route edges="473to653 653to829 829to828 828to69 69to68 68to67 67to66 66to808 808to74 74to844 844to845 845to846 846to847 847to691 691to302"/>
    </vehicle>
    <vehicle id="randUni966:1" type="random" depart="6096.00" departPos="0.06" arrivalPos="0.08" arrivalSpeed="0.00">
        <route edges="26to821 821to4 4to3 3to2 2to1 1to0 0to534 534to533 533to532 532to531 531to176 176to530 530to594 594to583 583to489"/>
    </vehicle>
    <vehicle id="randUni2103:1" type="random" depart="6109.00" departPos="57.24" arrivalPos="213.49" arrivalSpeed="0.00">
        <route edges="678to260 260to316 316to697 697to704 704to409 409to410 410to411 411to413 413to341 341to619 619to52 52to380 380to636 636to635 635to121"/>
    </vehicle>
    <vehicle id="randUni1701:1" type="random" depart="6155.00" departPos="297.56" arrivalPos="0.08" arrivalSpeed="0.00">
        <route edges="728to208 208to147 147to146 146to394 394to393 393to392 392to391 391to390 390to371 371to390"/>
    </vehicle>
    <vehicle id="randUni2424:1" type="random" depart="6186.00" departPos="0.00" arrivalPos="662.21" arrivalSpeed="0.00">
        <route edges="611to499 499to498 498to40 40to41 41to530 530to604 604to176 176to177 177to178 178to438 438to161 161to153 153to131 131to485 485to132 132to219 219to537"/>
    </vehicle>
    <vehicle id="randUni1002:1" type="random" depart="6192.00" departPos="0.11" arrivalPos="43.79" arrivalSpeed="0.00">
        <route edges="124to799 799to9 9to10 10to11 11to12 12to535 535to536 536to537 537to415 415to416 416to415"/>
    </vehicle>
    <vehicle id="randUni1864:1" type="random" depart="6231.00" departPos="262.41" arrivalPos="129.01" arrivalSpeed="0.00">
        <route edges="608to118 118to113 113to618 618to133 133to132 132to131 131to159 159to160 160to153"/>
    </vehicle>
    <vehicle id="randUni733:1" type="random" depart="6354.00" departPos="34.53" arrivalPos="0.09" arrivalSpeed="0.00">
        <route edges="47to48 48to49 49to50 50to619 619to52 52to133 133to132 132to131 131to153 153to152 152to162 162to574 574to575 575to576 576to166 166to165 165to511 511to513 513to165"/>
    </vehicle>
    <vehicle id="randUni478:1" type="random" depart="6376.00" departPos="0.06" arrivalPos="593.80" arrivalSpeed="0.00">
        <route edges="616to506 506to498 498to40 40to41 41to530 530to604 604to176 176to177 177to178 178to438 438to161 161to153 153to131 131to132 132to133 133to52 52to619 619to399 399to619"/>
    </vehicle>
    <vehicle id="randUni1531:1" type="random" depart="6444.00" departPos="30.60" arrivalPos="0.15" arrivalSpeed="0.00">
        <route edges="513to514 514to573 573to165 165to790 790to789 789to529 529to530 530to604 604to176 176to177 177to178 178to179 179to778 778to779 779to138 138to464 464to146 146to394 394to393 393to392 392to391 391to390 390to371 371to372 372to373 373to405 405to329 329to324 324to325 325to318"/>
    </vehicle>