<configuration>
<input>
<net-file value="here.net.xml" />
<route-files value="here.rou.xml" />
</input>
<time>
<begin value="0" />
<end value="86400" />
</time>
<output>
<fcd-output value="here.output10.xml" />
</output>
</configuration>