<?xml version="1.0" encoding="UTF-8"?>

<!-- generated on 02/28/22 16:43:32 by Eclipse SUMO activitygen Version 1.7.0
<configuration xmlns:xsi="http://www.w3.org/2001/XMLSchema-instance" xsi:noNamespaceSchemaLocation="http://sumo.dlr.de/xsd/activitygenConfiguration.xsd">

    <input>
        <net-file value="here.net.xml"/>
        <stat-file value="here.stat.xml"/>
    </input>

    <output>
        <output-file value="here.trips.rou.xml"/>
    </output>

    <random_number>
        <random value="true"/>
    </random_number>

</configuration>
-->

<routes xmlns:xsi="http://www.w3.org/2001/XMLSchema-instance" xsi:noNamespaceSchemaLocation="http://sumo.dlr.de/xsd/routes_file.xsd">
    <vType id="default" vClass="passenger" color="red"/>
    <vType id="random" vClass="passenger" color="blue"/>
    <vType id="bus" vClass="bus" color="green"/>

    <trip id="randUni1253:1" type="random" depart="16.00" departPos="0.14" arrivalPos="122.97" arrivalSpeed="0.00" from="741to740" to="744to750"/>
    <trip id="randUni941:1" type="random" depart="89.00" departPos="6.06" arrivalPos="305.29" arrivalSpeed="0.00" from="698to699" to="8to25"/>
    <trip id="randUni2250:1" type="random" depart="168.00" departPos="500.12" arrivalPos="56.82" arrivalSpeed="0.00" from="829to682" to="830to727"/>
    <trip id="randUni871:1" type="random" depart="222.00" departPos="0.17" arrivalPos="215.80" arrivalSpeed="0.00" from="808to74" to="33to496"/>
    <trip id="randUni1518:1" type="random" depart="285.00" departPos="188.79" arrivalPos="698.88" arrivalSpeed="0.00" from="160to153" to="157to164"/>
    <trip id="randUni2384:1" type="random" depart="360.00" departPos="266.42" arrivalPos="413.85" arrivalSpeed="0.00" from="718to820" to="188to447"/>
    <trip id="randUni1630:1" type="random" depart="409.00" departPos="17.72" arrivalPos="55.21" arrivalSpeed="0.00" from="356to355" to="498to499"/>
    <trip id="randUni655:1" type="random" depart="446.00" departPos="399.41" arrivalPos="591.93" arrivalSpeed="0.00" from="207to423" to="534to533"/>
    <trip id="randUni801:1" type="random" depart="653.00" departPos="551.65" arrivalPos="188.28" arrivalSpeed="0.00" from="552to800" to="33to496"/>
    <trip id="randUni2226:1" type="random" depart="671.00" departPos="334.61" arrivalPos="0.14" arrivalSpeed="0.00" from="832to579" to="202to583"/>
    <trip id="randUni132:1" type="random" depart="830.00" departPos="637.32" arrivalPos="178.26" arrivalSpeed="0.00" from="576to516" to="127to528"/>
    <trip id="randUni138:1" type="random" depart="1028.00" departPos="134.15" arrivalPos="14.23" arrivalSpeed="0.00" from="65to410" to="622to621"/>
    <trip id="randUni2528:1" type="random" depart="1200.00" departPos="463.82" arrivalPos="111.38" arrivalSpeed="0.00" from="161to435" to="670to84"/>
    <trip id="randUni578:1" type="random" depart="1244.00" departPos="163.37" arrivalPos="398.36" arrivalSpeed="0.00" from="390to341" to="97to280"/>
    <trip id="randUni1628:1" type="random" depart="1301.00" departPos="1865.31" arrivalPos="34.57" arrivalSpeed="0.00" from="537to219" to="594to38"/>
    <trip id="randUni180:1" type="random" depart="1328.00" departPos="151.89" arrivalPos="999.36" arrivalSpeed="0.00" from="363to208" to="327to607"/>
    <trip id="randUni2294:1" type="random" depart="1432.00" departPos="49.45" arrivalPos="4.51" arrivalSpeed="0.00" from="746to738" to="170to603"/>
    <trip id="randUni1695:1" type="random" depart="1435.00" departPos="39.45" arrivalPos="130.09" arrivalSpeed="0.00" from="588to35" to="345to230"/>
    <trip id="randUni2177:1" type="random" depart="1473.00" departPos="8.29" arrivalPos="50.86" arrivalSpeed="0.00" from="661to662" to="592to26"/>
    <trip id="randUni721:1" type="random" depart="1624.00" departPos="7.16" arrivalPos="274.01" arrivalSpeed="0.00" from="449to448" to="379to52"/>
    <trip id="randUni1872:1" type="random" depart="1675.00" departPos="5.89" arrivalPos="46.86" arrivalSpeed="0.00" from="53to52" to="373to644"/>
    <trip id="randUni1452:1" type="random" depart="1772.00" departPos="1.37" arrivalPos="61.78" arrivalSpeed="0.00" from="774to777" to="674to677"/>
    <trip id="randUni820:1" type="random" depart="1825.00" departPos="286.97" arrivalPos="269.69" arrivalSpeed="0.00" from="413to414" to="277to297"/>
    <trip id="randUni223:1" type="random" depart="1844.00" departPos="26.15" arrivalPos="0.46" arrivalSpeed="0.00" from="613to37" to="741to740"/>
    <trip id="randUni166:1" type="random" depart="2240.00" departPos="65.21" arrivalPos="0.20" arrivalSpeed="0.00" from="270to295" to="829to209"/>
    <trip id="randUni386:1" type="random" depart="2248.00" departPos="0.33" arrivalPos="541.12" arrivalSpeed="0.00" from="249to626" to="594to40"/>
    <trip id="randUni2534:1" type="random" depart="2279.00" departPos="0.16" arrivalPos="0.38" arrivalSpeed="0.00" from="303to678" to="387to386"/>
    <trip id="randUni2150:1" type="random" depart="2284.00" departPos="21.61" arrivalPos="208.25" arrivalSpeed="0.00" from="772to771" to="408to412"/>
    <trip id="randUni1606:1" type="random" depart="2448.00" departPos="276.22" arrivalPos="23.52" arrivalSpeed="0.00" from="219to218" to="465to466"/>
    <trip id="randUni414:1" type="random" depart="2466.00" departPos="1039.88" arrivalPos="320.21" arrivalSpeed="0.00" from="527to823" to="287to241"/>
    <trip id="randUni1790:1" type="random" depart="2489.00" departPos="743.90" arrivalPos="88.80" arrivalSpeed="0.00" from="267to276" to="321to322"/>
    <trip id="randUni1406:1" type="random" depart="2552.00" departPos="0.17" arrivalPos="151.43" arrivalSpeed="0.00" from="383to382" to="563to517"/>
    <trip id="randUni170:1" type="random" depart="2574.00" departPos="8.62" arrivalPos="43.76" arrivalSpeed="0.00" from="571to505" to="807to842"/>
    <trip id="randUni93:1" type="random" depart="2609.00" departPos="109.47" arrivalPos="55.60" arrivalSpeed="0.00" from="711to342" to="473to479"/>
    <trip id="randUni841:1" type="random" depart="2663.00" departPos="0.16" arrivalPos="162.04" arrivalSpeed="0.00" from="250to306" to="389to390"/>
    <trip id="randUni645:1" type="random" depart="2664.00" departPos="1279.11" arrivalPos="218.46" arrivalSpeed="0.00" from="607to52" to="799to591"/>
    <trip id="randUni417:1" type="random" depart="2795.00" departPos="195.04" arrivalPos="0.09" arrivalSpeed="0.00" from="589to493" to="445to452"/>
    <trip id="randUni1296:1" type="random" depart="2833.00" departPos="11.26" arrivalPos="0.50" arrivalSpeed="0.00" from="752to751" to="649to650"/>
    <trip id="randUni1564:1" type="random" depart="3006.00" departPos="7.65" arrivalPos="20.45" arrivalSpeed="0.00" from="103to102" to="411to77"/>
    <trip id="randUni2041:1" type="random" depart="3038.00" departPos="351.36" arrivalPos="80.50" arrivalSpeed="0.00" from="592to827" to="479to650"/>
    <trip id="randUni2312:1" type="random" depart="3181.00" departPos="76.36" arrivalPos="0.03" arrivalSpeed="0.00" from="483to10" to="675to678"/>
    <trip id="randUni1413:1" type="random" depart="3190.00" departPos="8.77" arrivalPos="153.20" arrivalSpeed="0.00" from="280to100" to="727to818"/>
    <trip id="randUni1859:1" type="random" depart="3269.00" departPos="0.06" arrivalPos="0.11" arrivalSpeed="0.00" from="83to88" to="507to496"/>
    <trip id="randUni2276:1" type="random" depart="3338.00" departPos="201.57" arrivalPos="0.14" arrivalSpeed="0.00" from="121to641" to="277to280"/>
    <trip id="randUni2494:1" type="random" depart="3409.00" departPos="0.17" arrivalPos="0.11" arrivalSpeed="0.00" from="595to530" to="349to717"/>
    <trip id="randUni996:1" type="random" depart="3513.00" departPos="128.86" arrivalPos="7.96" arrivalSpeed="0.00" from="598to522" to="807to74"/>
    <trip id="randUni632:1" type="random" depart="3617.00" departPos="20.28" arrivalPos="268.86" arrivalSpeed="0.00" from="706to371" to="337to388"/>
    <trip id="randUni2601:1" type="random" depart="3700.00" departPos="76.37" arrivalPos="1345.35" arrivalSpeed="0.00" from="737to738" to="592to799"/>
    <trip id="randUni315:1" type="random" depart="3765.00" departPos="528.05" arrivalPos="8.84" arrivalSpeed="0.00" from="26to8" to="653to651"/>
    <trip id="randUni2626:1" type="random" depart="3792.00" departPos="202.15" arrivalPos="550.22" arrivalSpeed="0.00" from="620to625" to="570to834"/>
    <trip id="randUni1256:1" type="random" depart="3805.00" departPos="150.05" arrivalPos="21.12" arrivalSpeed="0.00" from="28to592" to="183to173"/>
    <trip id="randUni668:1" type="random" depart="3873.00" departPos="25.01" arrivalPos="172.71" arrivalSpeed="0.00" from="332to842" to="331to73"/>
    <trip id="randUni1379:1" type="random" depart="3901.00" departPos="37.65" arrivalPos="51.71" arrivalSpeed="0.00" from="664to663" to="692to693"/>
    <trip id="randUni1757:1" type="random" depart="4040.00" departPos="20.40" arrivalPos="169.89" arrivalSpeed="0.00" from="652to651" to="24to23"/>
    <trip id="randUni220:1" type="random" depart="4041.00" departPos="585.53" arrivalPos="445.74" arrivalSpeed="0.00" from="799to4" to="7to597"/>
    <trip id="randUni2006:1" type="random" depart="4210.00" departPos="0.03" arrivalPos="0.19" arrivalSpeed="0.00" from="801to552" to="148to558"/>
    <trip id="randUni1415:1" type="random" depart="4268.00" departPos="182.03" arrivalPos="117.31" arrivalSpeed="0.00" from="413to341" to="134to133"/>
    <trip id="randUni1675:1" type="random" depart="4307.00" departPos="9.39" arrivalPos="115.91" arrivalSpeed="0.00" from="44to706" to="811to67"/>
    <trip id="randUni1505:1" type="random" depart="4351.00" departPos="7.50" arrivalPos="162.30" arrivalSpeed="0.00" from="668to783" to="632to98"/>
    <trip id="randUni2028:1" type="random" depart="4445.00" departPos="874.93" arrivalPos="0.18" arrivalSpeed="0.00" from="558to156" to="152to430"/>
    <trip id="randUni663:1" type="random" depart="4484.00" departPos="382.34" arrivalPos="1297.13" arrivalSpeed="0.00" from="652to820" to="799to25"/>
    <trip id="randUni52:1" type="random" depart="4508.00" departPos="1.70" arrivalPos="199.89" arrivalSpeed="0.00" from="496to609" to="286to287"/>
    <trip id="randUni1047:1" type="random" depart="4614.00" departPos="94.85" arrivalPos="124.96" arrivalSpeed="0.00" from="65to410" to="264to284"/>
    <trip id="randUni241:1" type="random" depart="4733.00" departPos="36.80" arrivalPos="0.13" arrivalSpeed="0.00" from="805to64" to="175to423"/>
    <trip id="randUni2209:1" type="random" depart="4744.00" departPos="833.97" arrivalPos="0.03" arrivalSpeed="0.00" from="567to164" to="105to543"/>
    <trip id="randUni2580:1" type="random" depart="4775.00" departPos="11.25" arrivalPos="0.06" arrivalSpeed="0.00" from="56to55" to="74to808"/>
    <trip id="randUni1447:1" type="random" depart="4911.00" departPos="183.21" arrivalPos="269.34" arrivalSpeed="0.00" from="836to648" to="410to78"/>
    <trip id="randUni917:1" type="random" depart="4927.00" departPos="0.07" arrivalPos="155.35" arrivalSpeed="0.00" from="421to167" to="579to817"/>
    <trip id="randUni1282:1" type="random" depart="4999.00" departPos="666.07" arrivalPos="152.40" arrivalSpeed="0.00" from="619to58" to="80to700"/>
    <trip id="randUni522:1" type="random" depart="5213.00" departPos="32.00" arrivalPos="165.77" arrivalSpeed="0.00" from="675to310" to="572to512"/>
    <trip id="randUni772:1" type="random" depart="5247.00" departPos="0.20" arrivalPos="0.08" arrivalSpeed="0.00" from="857to30" to="202to489"/>
    <trip id="randUni493:1" type="random" depart="5339.00" departPos="373.12" arrivalPos="9.68" arrivalSpeed="0.00" from="307to308" to="315to255"/>
    <trip id="randUni2036:1" type="random" depart="5353.00" departPos="155.99" arrivalPos="64.70" arrivalSpeed="0.00" from="377to376" to="211to212"/>
    <trip id="randUni269:1" type="random" depart="5440.00" departPos="61.40" arrivalPos="284.07" arrivalSpeed="0.00" from="505to496" to="107to111"/>
    <trip id="randUni1037:1" type="random" depart="5460.00" departPos="36.69" arrivalPos="3.48" arrivalSpeed="0.00" from="810to809" to="857to540"/>
    <trip id="randUni727:1" type="random" depart="5563.00" departPos="0.03" arrivalPos="0.47" arrivalSpeed="0.00" from="406to407" to="575to574"/>
    <trip id="randUni397:1" type="random" depart="5574.00" departPos="3.11" arrivalPos="298.00" arrivalSpeed="0.00" from="781to780" to="513to564"/>
    <trip id="randUni2030:1" type="random" depart="5623.00" departPos="2.66" arrivalPos="133.64" arrivalSpeed="0.00" from="52to322" to="9to25"/>
    <trip id="randUni102:1" type="random" depart="5669.00" departPos="58.46" arrivalPos="62.81" arrivalSpeed="0.00" from="263to295" to="835to200"/>
    <trip id="randUni2181:1" type="random" depart="5746.00" departPos="58.37" arrivalPos="0.16" arrivalSpeed="0.00" from="149to164" to="503to504"/>
    <trip id="randUni1852:1" type="random" depart="5814.00" departPos="86.53" arrivalPos="376.74" arrivalSpeed="0.00" from="26to8" to="82to83"/>
    <trip id="randUni2614:1" type="random" depart="5847.00" departPos="1.13" arrivalPos="19.01" arrivalSpeed="0.00" from="523to596" to="411to66"/>
    <trip id="randUni1964:1" type="random" depart="5892.00" departPos="48.19" arrivalPos="41.13" arrivalSpeed="0.00" from="615to507" to="822to8"/>
    <trip id="randUni2115:1" type="random" depart="5905.00" departPos="1024.31" arrivalPos="590.83" arrivalSpeed="0.00" from="820to89" to="19to18"/>
    <trip id="randUni585:1" type="random" depart="5960.00" departPos="1224.42" arrivalPos="48.96" arrivalSpeed="0.00" from="158to564" to="54to619"/>
    <trip id="randUni661:1" type="random" depart="5980.00" departPos="335.95" arrivalPos="67.81" arrivalSpeed="0.00" from="682to829" to="819to730"/>
    <trip id="randUni1610:1" type="random" depart="5989.00" departPos="87.73" arrivalPos="482.91" arrivalSpeed="0.00" from="361to360" to="52to379"/>
    <trip id="randUni1877:1" type="random" depart="6055.00" departPos="1.80" arrivalPos="209.77" arrivalSpeed="0.00" from="473to653" to="691to302"/>
    <trip id="randUni966:1" type="random" depart="6096.00" departPos="0.06" arrivalPos="0.08" arrivalSpeed="0.00" from="26to821" to="583to489"/>
    <trip id="randUni2103:1" type="random" depart="6109.00" departPos="57.24" arrivalPos="213.49" arrivalSpeed="0.00" from="678to260" to="635to121"/>
    <trip id="randUni1701:1" type="random" depart="6155.00" departPos="297.56" arrivalPos="0.08" arrivalSpeed="0.00" from="728to208" to="371to390"/>
    <trip id="randUni2424:1" type="random" depart="6186.00" departPos="0.00" arrivalPos="662.21" arrivalSpeed="0.00" from="611to499" to="219to537"/>
    <trip id="randUni1002:1" type="random" depart="6192.00" departPos="0.11" arrivalPos="43.79" arrivalSpeed="0.00" from="124to799" to="416to415"/>
    <trip id="randUni1864:1" type="random" depart="6231.00" departPos="262.41" arrivalPos="129.01" arrivalSpeed="0.00" from="608to118" to="160to153"/>
    <trip id="randUni733:1" type="random" depart="6354.00" departPos="34.53" arrivalPos="0.09" arrivalSpeed="0.00" from="47to48" to="513to165"/>
    <trip id="randUni478:1" type="random" depart="6376.00" departPos="0.06" arrivalPos="593.80" arrivalSpeed="0.00" from="616to506" to="399to619"/>
    <trip id="randUni1531:1" type="random" depart="6444.00" departPos="30.60" arrivalPos="0.15" arrivalSpeed="0.00" from="513to514" to="325to318"/>
    <trip id="randUni483:1" type="random" depart="6567.00" departPos="0.05" arrivalPos="485.56" arrivalSpeed="0.00" from="598to7" to="265to266"/>
    <trip id="randUni924:1" type="random" depart="6593.00" departPos="0.04" arrivalPos="11.00" arrivalSpeed="0.00" from="723to364" to="373to644"/>
    <trip id="randUni1599:1" type="random" depart="6599.00" departPos="491.49" arrivalPos="421.30" arrivalSpeed="0.00" from="55to54" to="748to752"/>
    <trip id="randUni1336:1" type="random" depart="6629.00" departPos="490.63" arrivalPos="3.72" arrivalSpeed="0.00" from="7to597" to="141to469"/>
    <trip id="randUni2309:1" type="random" depart="6632.00" departPos="120.33" arrivalPos="460.23" arrivalSpeed="0.00" from="77to411" to="15to16"/>
    <trip id="randUni1054:1" type="random" depart="6663.00" departPos="327.82" arrivalPos="308.66" arrivalSpeed="0.00" from="521to761" to="610to594"/>
    <trip id="randUni942:1" type="random" depart="6739.00" departPos="0.13" arrivalPos="155.84" arrivalSpeed="0.00" from="412to91" to="803to61"/>
    <trip id="randUni2132:1" type="random" depart="6762.00" departPos="127.90" arrivalPos="296.41" arrivalSpeed="0.00" from="506to610" to="607to49"/>
    <trip id="randUni579:1" type="random" depart="6819.00" departPos="0.02" arrivalPos="1616.21" arrivalSpeed="0.00" from="222to133" to="607to53"/>
    <trip id="randUni2125:1" type="random" depart="6837.00" departPos="365.01" arrivalPos="95.78" arrivalSpeed="0.00" from="726to362" to="765to419"/>
    <trip id="randUni191:1" type="random" depart="6886.00" departPos="513.96" arrivalPos="366.99" arrivalSpeed="0.00" from="268to275" to="441to152"/>
    <trip id="randUni350:1" type="random" depart="7055.00" departPos="0.11" arrivalPos="20.82" arrivalSpeed="0.00" from="437to436" to="40to616"/>
    <trip id="randUni736:1" type="random" depart="7088.00" departPos="1105.99" arrivalPos="943.76" arrivalSpeed="0.00" from="572to564" to="208to147"/>
    <trip id="randUni1349:1" type="random" depart="7116.00" departPos="4.43" arrivalPos="1.77" arrivalSpeed="0.00" from="541to542" to="716to713"/>
    <trip id="randUni2083:1" type="random" depart="7279.00" departPos="26.84" arrivalPos="463.79" arrivalSpeed="0.00" from="514to573" to="722to355"/>
    <trip id="randUni1099:1" type="random" depart="7295.00" departPos="7.87" arrivalPos="40.32" arrivalSpeed="0.00" from="126to125" to="632to100"/>
    <trip id="randUni2029:1" type="random" depart="7423.00" departPos="405.55" arrivalPos="68.65" arrivalSpeed="0.00" from="141to366" to="64to842"/>
    <trip id="randUni1466:1" type="random" depart="7439.00" departPos="69.98" arrivalPos="1.89" arrivalSpeed="0.00" from="452to443" to="172to171"/>
    <trip id="randUni1600:1" type="random" depart="7485.00" departPos="11.97" arrivalPos="29.33" arrivalSpeed="0.00" from="498to571" to="62to75"/>
    <trip id="randUni2188:1" type="random" depart="7487.00" departPos="221.26" arrivalPos="173.36" arrivalSpeed="0.00" from="711to712" to="710to335"/>
    <trip id="randUni690:1" type="random" depart="7518.00" departPos="4.77" arrivalPos="24.61" arrivalSpeed="0.00" from="453to457" to="692to693"/>
    <trip id="randUni1973:1" type="random" depart="7741.00" departPos="4.73" arrivalPos="408.35" arrivalSpeed="0.00" from="434to430" to="716to359"/>
    <trip id="randUni692:1" type="random" depart="7845.00" departPos="76.88" arrivalPos="2.82" arrivalSpeed="0.00" from="274to696" to="255to256"/>
    <trip id="randUni1743:1" type="random" depart="7963.00" departPos="11.94" arrivalPos="55.83" arrivalSpeed="0.00" from="744to743" to="41to789"/>
    <trip id="randUni1285:1" type="random" depart="7972.00" departPos="0.17" arrivalPos="15.30" arrivalSpeed="0.00" from="240to233" to="706to712"/>
    <trip id="randUni1357:1" type="random" depart="8095.00" departPos="0.19" arrivalPos="10.89" arrivalSpeed="0.00" from="666to667" to="392to376"/>
    <trip id="randUni1666:1" type="random" depart="8140.00" departPos="61.12" arrivalPos="239.05" arrivalSpeed="0.00" from="581to9" to="393to396"/>
    <trip id="randUni2411:1" type="random" depart="8225.00" departPos="4.06" arrivalPos="107.38" arrivalSpeed="0.00" from="103to586" to="475to476"/>
    <trip id="randUni409:1" type="random" depart="8361.00" departPos="228.11" arrivalPos="89.38" arrivalSpeed="0.00" from="199to184" to="114to618"/>
    <trip id="randUni2196:1" type="random" depart="8371.00" departPos="151.39" arrivalPos="0.07" arrivalSpeed="0.00" from="302to701" to="708to711"/>
    <trip id="randUni1113:1" type="random" depart="8372.00" departPos="2.45" arrivalPos="379.35" arrivalSpeed="0.00" from="472to480" to="394to224"/>
    <trip id="randUni712:1" type="random" depart="8389.00" departPos="1.11" arrivalPos="84.21" arrivalSpeed="0.00" from="172to787" to="13to587"/>
    <trip id="randUni2416:1" type="random" depart="8398.00" departPos="0.10" arrivalPos="479.73" arrivalSpeed="0.00" from="150to568" to="527to556"/>
    <trip id="randUni1333:1" type="random" depart="8492.00" departPos="310.76" arrivalPos="181.95" arrivalSpeed="0.00" from="279to97" to="112to617"/>
    <trip id="randUni1272:1" type="random" depart="8520.00" departPos="24.93" arrivalPos="126.86" arrivalSpeed="0.00" from="371to706" to="151to150"/>
    <trip id="randUni959:1" type="random" depart="8527.00" departPos="253.55" arrivalPos="285.44" arrivalSpeed="0.00" from="823to798" to="289to245"/>
    <trip id="randUni1737:1" type="random" depart="8601.00" departPos="418.50" arrivalPos="10.98" arrivalSpeed="0.00" from="84to287" to="263to270"/>
    <trip id="randUni881:1" type="random" depart="8632.00" departPos="109.38" arrivalPos="109.45" arrivalSpeed="0.00" from="36to37" to="411to65"/>
    <trip id="randUni1513:1" type="random" depart="8674.00" departPos="0.09" arrivalPos="10.93" arrivalSpeed="0.00" from="548to549" to="745to744"/>
    <trip id="randUni2131:1" type="random" depart="8742.00" departPos="38.03" arrivalPos="93.63" arrivalSpeed="0.00" from="822to821" to="756to763"/>
    <trip id="randUni1881:1" type="random" depart="8763.00" departPos="99.02" arrivalPos="626.58" arrivalSpeed="0.00" from="594to39" to="797to220"/>
    <trip id="randUni2160:1" type="random" depart="8767.00" departPos="57.16" arrivalPos="9.90" arrivalSpeed="0.00" from="689to694" to="411to809"/>
    <trip id="randUni847:1" type="random" depart="8910.00" departPos="1.29" arrivalPos="25.84" arrivalSpeed="0.00" from="624to622" to="91to700"/>
    <trip id="randUni22:1" type="random" depart="8959.00" departPos="300.80" arrivalPos="351.17" arrivalSpeed="0.00" from="118to117" to="820to99"/>
    <trip id="randUni2051:1" type="random" depart="9031.00" departPos="29.36" arrivalPos="0.09" arrivalSpeed="0.00" from="235to290" to="371to390"/>
    <trip id="randUni1713:1" type="random" depart="9046.00" departPos="25.89" arrivalPos="4.82" arrivalSpeed="0.00" from="692to847" to="396to368"/>
    <trip id="randUni198:1" type="random" depart="9063.00" departPos="4.23" arrivalPos="225.59" arrivalSpeed="0.00" from="446to449" to="698to319"/>
    <trip id="randUni34:1" type="random" depart="9222.00" departPos="5.69" arrivalPos="1090.18" arrivalSpeed="0.00" from="305to308" to="566to563"/>
    <trip id="randUni981:1" type="random" depart="9287.00" departPos="823.96" arrivalPos="312.59" arrivalSpeed="0.00" from="157to566" to="340to644"/>
    <trip id="randUni2009:1" type="random" depart="9325.00" departPos="572.72" arrivalPos="157.27" arrivalSpeed="0.00" from="802to801" to="675to677"/>
    <trip id="randUni2225:1" type="random" depart="9356.00" departPos="10.21" arrivalPos="149.59" arrivalSpeed="0.00" from="359to101" to="757to756"/>
    <trip id="randUni55:1" type="random" depart="9379.00" departPos="494.63" arrivalPos="510.49" arrivalSpeed="0.00" from="137to463" to="105to542"/>
    <trip id="randUni90:1" type="random" depart="9380.00" departPos="179.80" arrivalPos="2.90" arrivalSpeed="0.00" from="302to249" to="191to190"/>
    <trip id="randUni133:1" type="random" depart="9387.00" departPos="641.33" arrivalPos="292.46" arrivalSpeed="0.00" from="763to762" to="624to621"/>
    <trip id="randUni1420:1" type="random" depart="9392.00" departPos="0.17" arrivalPos="3.79" arrivalSpeed="0.00" from="606to607" to="585to584"/>
    <trip id="randUni131:1" type="random" depart="9448.00" departPos="37.27" arrivalPos="490.04" arrivalSpeed="0.00" from="281to297" to="51to50"/>
    <trip id="randUni0:1" type="random" depart="9531.00" departPos="1188.27" arrivalPos="0.07" arrivalSpeed="0.00" from="221to121" to="38to613"/>
    <trip id="randUni1051:1" type="random" depart="9584.00" departPos="0.12" arrivalPos="0.19" arrivalSpeed="0.00" from="595to530" to="255to316"/>
    <trip id="randUni340:1" type="random" depart="9713.00" departPos="22.52" arrivalPos="52.20" arrivalSpeed="0.00" from="448to449" to="589to489"/>
    <trip id="randUni2393:1" type="random" depart="9726.00" departPos="66.02" arrivalPos="0.13" arrivalSpeed="0.00" from="120to112" to="475to478"/>
    <trip id="randUni1656:1" type="random" depart="9754.00" departPos="116.32" arrivalPos="738.90" arrivalSpeed="0.00" from="823to557" to="703to265"/>
    <trip id="randUni387:1" type="random" depart="9777.00" departPos="0.13" arrivalPos="97.53" arrivalSpeed="0.00" from="652to653" to="331to65"/>
    <trip id="randUni1812:1" type="random" depart="9845.00" departPos="3.68" arrivalPos="0.10" arrivalSpeed="0.00" from="647to648" to="113to618"/>
    <trip id="randUni532:1" type="random" depart="9857.00" departPos="204.33" arrivalPos="445.05" arrivalSpeed="0.00" from="66to840" to="137to470"/>
    <trip id="randUni2440:1" type="random" depart="9858.00" departPos="301.51" arrivalPos="0.20" arrivalSpeed="0.00" from="156to576" to="159to160"/>
    <trip id="randUni1210:1" type="random" depart="9904.00" departPos="642.83" arrivalPos="346.91" arrivalSpeed="0.00" from="137to463" to="563to156"/>
    <trip id="randUni1270:1" type="random" depart="9988.00" departPos="14.85" arrivalPos="0.16" arrivalSpeed="0.00" from="651to653" to="212to769"/>
    <trip id="randUni2142:1" type="random" depart="10007.00" departPos="130.50" arrivalPos="71.94" arrivalSpeed="0.00" from="279to97" to="524to523"/>
    <trip id="randUni1602:1" type="random" depart="10042.00" departPos="7.62" arrivalPos="0.20" arrivalSpeed="0.00" from="690to693" to="586to102"/>
    <trip id="randUni1372:1" type="random" depart="10059.00" departPos="239.16" arrivalPos="0.15" arrivalSpeed="0.00" from="82to848" to="611to571"/>
    <trip id="randUni1592:1" type="random" depart="10103.00" departPos="239.27" arrivalPos="179.67" arrivalSpeed="0.00" from="266to305" to="568to567"/>
    <trip id="randUni1055:1" type="random" depart="10123.00" departPos="441.26" arrivalPos="0.10" arrivalSpeed="0.00" from="92to90" to="91to412"/>
    <trip id="randUni1837:1" type="random" depart="10286.00" departPos="909.60" arrivalPos="528.27" arrivalSpeed="0.00" from="823to557" to="432to152"/>
    <trip id="randUni2460:1" type="random" depart="10387.00" departPos="63.54" arrivalPos="387.42" arrivalSpeed="0.00" from="197to666" to="519to520"/>
    <trip id="randUni2584:1" type="random" depart="10403.00" departPos="94.70" arrivalPos="293.71" arrivalSpeed="0.00" from="750to743" to="591to25"/>
    <trip id="randUni2136:1" type="random" depart="10536.00" departPos="322.38" arrivalPos="119.16" arrivalSpeed="0.00" from="383to380" to="230to68"/>
    <trip id="randUni2089:1" type="random" depart="10602.00" departPos="5.43" arrivalPos="402.27" arrivalSpeed="0.00" from="592to26" to="822to597"/>
    <trip id="randUni2042:1" type="random" depart="10718.00" departPos="695.20" arrivalPos="555.24" arrivalSpeed="0.00" from="682to820" to="268to114"/>
    <trip id="randUni794:1" type="random" depart="10721.00" departPos="101.69" arrivalPos="222.12" arrivalSpeed="0.00" from="627to250" to="342to706"/>
    <trip id="randUni1478:1" type="random" depart="10751.00" departPos="89.36" arrivalPos="568.20" arrivalSpeed="0.00" from="452to443" to="174to181"/>
    <trip id="randUni2020:1" type="random" depart="10765.00" departPos="265.15" arrivalPos="7.42" arrivalSpeed="0.00" from="442to161" to="379to378"/>
    <trip id="randUni1816:1" type="random" depart="10824.00" departPos="1086.57" arrivalPos="881.63" arrivalSpeed="0.00" from="510to515" to="594to595"/>
    <trip id="randUni1320:1" type="random" depart="10825.00" departPos="482.29" arrivalPos="48.36" arrivalSpeed="0.00" from="817to782" to="297to278"/>
    <trip id="randUni1237:1" type="random" depart="11030.00" departPos="48.17" arrivalPos="20.17" arrivalSpeed="0.00" from="100to359" to="643to642"/>
    <trip id="randUni250:1" type="random" depart="11059.00" departPos="145.64" arrivalPos="511.14" arrivalSpeed="0.00" from="54to55" to="125to581"/>
    <trip id="randUni1969:1" type="random" depart="11078.00" departPos="29.24" arrivalPos="43.04" arrivalSpeed="0.00" from="777to770" to="63to75"/>
    <trip id="randUni756:1" type="random" depart="11205.00" departPos="22.13" arrivalPos="0.14" arrivalSpeed="0.00" from="135to222" to="511to513"/>
    <trip id="randUni2349:1" type="random" depart="11244.00" departPos="106.87" arrivalPos="204.53" arrivalSpeed="0.00" from="413to644" to="710to342"/>
    <trip id="randUni1148:1" type="random" depart="11336.00" departPos="0.16" arrivalPos="68.53" arrivalSpeed="0.00" from="152to429" to="832to794"/>
    <trip id="randUni1160:1" type="random" depart="11382.00" departPos="54.92" arrivalPos="60.32" arrivalSpeed="0.00" from="161to441" to="665to197"/>
    <trip id="randUni2217:1" type="random" depart="11407.00" departPos="684.55" arrivalPos="122.84" arrivalSpeed="0.00" from="799to798" to="589to489"/>
    <trip id="randUni1718:1" type="random" depart="11420.00" departPos="0.20" arrivalPos="32.16" arrivalSpeed="0.00" from="125to591" to="262to261"/>
    <trip id="randUni1279:1" type="random" depart="11421.00" departPos="1.65" arrivalPos="43.66" arrivalSpeed="0.00" from="103to586" to="375to399"/>
    <trip id="randUni1498:1" type="random" depart="11509.00" departPos="13.11" arrivalPos="330.85" arrivalSpeed="0.00" from="74to64" to="708to709"/>
    <trip id="randUni697:1" type="random" depart="11512.00" departPos="104.05" arrivalPos="405.39" arrivalSpeed="0.00" from="730to819" to="275to268"/>
    <trip id="randUni1470:1" type="random" depart="11645.00" departPos="13.94" arrivalPos="180.23" arrivalSpeed="0.00" from="56to57" to="114to115"/>
    <trip id="randUni2191:1" type="random" depart="11656.00" departPos="33.17" arrivalPos="137.08" arrivalSpeed="0.00" from="650to829" to="211to345"/>