<edges>
<edge from="n0" to="n1" id="0to1"/>
<edge from="n0" to="n534" id="0to534"/>
<edge from="n0" to="n746" id="0to746"/>
<edge from="n1" to="n0" id="1to0"/>
<edge from="n1" to="n2" id="1to2"/>
<edge from="n2" to="n1" id="2to1"/>
<edge from="n2" to="n3" id="2to3"/>
<edge from="n2" to="n482" id="2to482"/>
<edge from="n2" to="n483" id="2to483"/>
<edge from="n3" to="n2" id="3to2"/>
<edge from="n3" to="n4" id="3to4"/>
<edge from="n3" to="n482" id="3to482"/>
<edge from="n3" to="n483" id="3to483"/>
<edge from="n4" to="n3" id="4to3"/>
<edge from="n4" to="n5" id="4to5"/>
<edge from="n4" to="n25" id="4to25"/>
<edge from="n4" to="n26" id="4to26"/>
<edge from="n4" to="n124" id="4to124"/>
<edge from="n4" to="n125" id="4to125"/>
<edge from="n4" to="n581" id="4to581"/>
<edge from="n4" to="n591" id="4to591"/>
<edge from="n4" to="n799" id="4to799"/>
<edge from="n4" to="n821" id="4to821"/>
<edge from="n5" to="n4" id="5to4"/>
<edge from="n5" to="n6" id="5to6"/>
<edge from="n5" to="n26" id="5to26"/>
<edge from="n5" to="n125" id="5to125"/>
<edge from="n5" to="n591" id="5to591"/>
<edge from="n5" to="n622" id="5to622"/>
<edge from="n5" to="n623" id="5to623"/>
<edge from="n5" to="n821" id="5to821"/>
<edge from="n6" to="n5" id="6to5"/>
<edge from="n6" to="n597" id="6to597"/>
<edge from="n7" to="n8" id="7to8"/>
<edge from="n7" to="n597" id="7to597"/>
<edge from="n7" to="n598" id="7to598"/>
<edge from="n8" to="n7" id="8to7"/>
<edge from="n8" to="n9" id="8to9"/>
<edge from="n8" to="n25" id="8to25"/>
<edge from="n8" to="n26" id="8to26"/>
<edge from="n8" to="n27" id="8to27"/>
<edge from="n8" to="n124" id="8to124"/>
<edge from="n8" to="n125" id="8to125"/>
<edge from="n8" to="n126" id="8to126"/>
<edge from="n8" to="n581" id="8to581"/>
<edge from="n8" to="n591" id="8to591"/>
<edge from="n8" to="n592" id="8to592"/>
<edge from="n8" to="n622" id="8to622"/>
<edge from="n8" to="n623" id="8to623"/>
<edge from="n8" to="n624" id="8to624"/>
<edge from="n8" to="n799" id="8to799"/>
<edge from="n8" to="n821" id="8to821"/>
<edge from="n8" to="n822" id="8to822"/>
<edge from="n9" to="n8" id="9to8"/>
<edge from="n9" to="n10" id="9to10"/>
<edge from="n9" to="n25" id="9to25"/>
<edge from="n9" to="n124" id="9to124"/>
<edge from="n9" to="n581" id="9to581"/>
<edge from="n9" to="n799" id="9to799"/>
<edge from="n10" to="n9" id="10to9"/>
<edge from="n10" to="n11" id="10to11"/>
<edge from="n10" to="n482" id="10to482"/>
<edge from="n10" to="n483" id="10to483"/>
<edge from="n11" to="n10" id="11to10"/>
<edge from="n11" to="n12" id="11to12"/>
<edge from="n11" to="n482" id="11to482"/>
<edge from="n11" to="n483" id="11to483"/>
<edge from="n12" to="n11" id="12to11"/>
<edge from="n12" to="n535" id="12to535"/>
<edge from="n13" to="n14" id="13to14"/>
<edge from="n13" to="n21" id="13to21"/>
<edge from="n13" to="n541" id="13to541"/>
<edge from="n13" to="n544" id="13to544"/>
<edge from="n13" to="n585" id="13to585"/>
<edge from="n13" to="n587" id="13to587"/>
<edge from="n14" to="n13" id="14to13"/>
<edge from="n14" to="n15" id="14to15"/>
<edge from="n14" to="n20" id="14to20"/>
<edge from="n14" to="n21" id="14to21"/>
<edge from="n14" to="n585" id="14to585"/>
<edge from="n14" to="n587" id="14to587"/>
<edge from="n15" to="n14" id="15to14"/>
<edge from="n15" to="n16" id="15to16"/>
<edge from="n15" to="n19" id="15to19"/>
<edge from="n15" to="n20" id="15to20"/>
<edge from="n15" to="n21" id="15to21"/>
<edge from="n15" to="n585" id="15to585"/>
<edge from="n15" to="n587" id="15to587"/>
<edge from="n16" to="n15" id="16to15"/>
<edge from="n16" to="n17" id="16to17"/>
<edge from="n16" to="n18" id="16to18"/>
<edge from="n16" to="n19" id="16to19"/>
<edge from="n16" to="n20" id="16to20"/>
<edge from="n16" to="n584" id="16to584"/>
<edge from="n16" to="n585" id="16to585"/>
<edge from="n16" to="n587" id="16to587"/>
<edge from="n17" to="n16" id="17to16"/>
<edge from="n17" to="n18" id="17to18"/>
<edge from="n17" to="n19" id="17to19"/>
<edge from="n17" to="n584" id="17to584"/>
<edge from="n17" to="n587" id="17to587"/>
<edge from="n18" to="n16" id="18to16"/>
<edge from="n18" to="n17" id="18to17"/>
<edge from="n18" to="n19" id="18to19"/>
<edge from="n18" to="n584" id="18to584"/>
<edge from="n18" to="n587" id="18to587"/>
<edge from="n19" to="n15" id="19to15"/>
<edge from="n19" to="n16" id="19to16"/>
<edge from="n19" to="n17" id="19to17"/>
<edge from="n19" to="n18" id="19to18"/>
<edge from="n19" to="n20" id="19to20"/>
<edge from="n19" to="n584" id="19to584"/>
<edge from="n19" to="n585" id="19to585"/>
<edge from="n19" to="n587" id="19to587"/>
<edge from="n20" to="n14" id="20to14"/>
<edge from="n20" to="n15" id="20to15"/>
<edge from="n20" to="n16" id="20to16"/>
<edge from="n20" to="n19" id="20to19"/>
<edge from="n20" to="n21" id="20to21"/>
<edge from="n20" to="n585" id="20to585"/>
<edge from="n20" to="n587" id="20to587"/>
<edge from="n21" to="n13" id="21to13"/>
<edge from="n21" to="n14" id="21to14"/>
<edge from="n21" to="n15" id="21to15"/>
<edge from="n21" to="n20" id="21to20"/>
<edge from="n21" to="n541" id="21to541"/>
<edge from="n21" to="n544" id="21to544"/>
<edge from="n21" to="n585" id="21to585"/>
<edge from="n21" to="n587" id="21to587"/>
<edge from="n22" to="n23" id="22to23"/>
<edge from="n22" to="n580" id="22to580"/>
<edge from="n22" to="n581" id="22to581"/>
<edge from="n23" to="n22" id="23to22"/>
<edge from="n23" to="n24" id="23to24"/>
<edge from="n23" to="n481" id="23to481"/>
<edge from="n23" to="n482" id="23to482"/>
<edge from="n23" to="n484" id="23to484"/>
<edge from="n23" to="n580" id="23to580"/>
<edge from="n23" to="n581" id="23to581"/>
<edge from="n24" to="n23" id="24to23"/>
<edge from="n24" to="n25" id="24to25"/>
<edge from="n24" to="n481" id="24to481"/>
<edge from="n24" to="n482" id="24to482"/>
<edge from="n24" to="n484" id="24to484"/>
<edge from="n24" to="n581" id="24to581"/>
<edge from="n25" to="n4" id="25to4"/>
<edge from="n25" to="n8" id="25to8"/>
<edge from="n25" to="n9" id="25to9"/>
<edge from="n25" to="n24" id="25to24"/>
<edge from="n25" to="n26" id="25to26"/>
<edge from="n25" to="n124" id="25to124"/>
<edge from="n25" to="n125" id="25to125"/>
<edge from="n25" to="n581" id="25to581"/>
<edge from="n25" to="n591" id="25to591"/>
<edge from="n25" to="n799" id="25to799"/>
<edge from="n25" to="n821" id="25to821"/>
<edge from="n26" to="n4" id="26to4"/>
<edge from="n26" to="n5" id="26to5"/>
<edge from="n26" to="n8" id="26to8"/>
<edge from="n26" to="n25" id="26to25"/>
<edge from="n26" to="n27" id="26to27"/>
<edge from="n26" to="n124" id="26to124"/>
<edge from="n26" to="n125" id="26to125"/>
<edge from="n26" to="n126" id="26to126"/>
<edge from="n26" to="n591" id="26to591"/>
<edge from="n26" to="n592" id="26to592"/>
<edge from="n26" to="n799" id="26to799"/>
<edge from="n26" to="n821" id="26to821"/>
<edge from="n26" to="n822" id="26to822"/>
<edge from="n27" to="n8" id="27to8"/>
<edge from="n27" to="n26" id="27to26"/>
<edge from="n27" to="n28" id="27to28"/>
<edge from="n27" to="n124" id="27to124"/>
<edge from="n27" to="n591" id="27to591"/>
<edge from="n27" to="n592" id="27to592"/>
<edge from="n27" to="n799" id="27to799"/>
<edge from="n28" to="n27" id="28to27"/>
<edge from="n28" to="n29" id="28to29"/>
<edge from="n28" to="n481" id="28to481"/>
<edge from="n28" to="n484" id="28to484"/>
<edge from="n28" to="n592" id="28to592"/>
<edge from="n29" to="n28" id="29to28"/>
<edge from="n29" to="n481" id="29to481"/>
<edge from="n29" to="n484" id="29to484"/>
<edge from="n29" to="n592" id="29to592"/>
<edge from="n29" to="n827" id="29to827"/>
<edge from="n29" to="n863" id="29to863"/>
<edge from="n30" to="n31" id="30to31"/>
<edge from="n30" to="n540" id="30to540"/>
<edge from="n30" to="n600" id="30to600"/>
<edge from="n30" to="n601" id="30to601"/>
<edge from="n30" to="n788" id="30to788"/>
<edge from="n30" to="n856" id="30to856"/>
<edge from="n30" to="n857" id="30to857"/>
<edge from="n31" to="n30" id="31to30"/>
<edge from="n31" to="n32" id="31to32"/>
<edge from="n31" to="n601" id="31to601"/>
<edge from="n32" to="n31" id="32to31"/>
<edge from="n32" to="n33" id="32to33"/>
<edge from="n32" to="n496" id="32to496"/>
<edge from="n32" to="n497" id="32to497"/>
<edge from="n32" to="n601" id="32to601"/>
<edge from="n32" to="n609" id="32to609"/>
<edge from="n32" to="n616" id="32to616"/>
<edge from="n33" to="n32" id="33to32"/>
<edge from="n33" to="n34" id="33to34"/>
<edge from="n33" to="n496" id="33to496"/>
<edge from="n33" to="n497" id="33to497"/>
<edge from="n33" to="n601" id="33to601"/>
<edge from="n33" to="n609" id="33to609"/>
<edge from="n33" to="n616" id="33to616"/>
<edge from="n34" to="n33" id="34to33"/>
<edge from="n34" to="n35" id="34to35"/>
<edge from="n34" to="n601" id="34to601"/>
<edge from="n35" to="n34" id="35to34"/>
<edge from="n35" to="n588" id="35to588"/>
<edge from="n35" to="n589" id="35to589"/>
<edge from="n35" to="n601" id="35to601"/>
<edge from="n36" to="n37" id="36to37"/>
<edge from="n36" to="n583" id="36to583"/>
<edge from="n36" to="n593" id="36to593"/>
<edge from="n36" to="n594" id="36to594"/>
<edge from="n37" to="n36" id="37to36"/>
<edge from="n37" to="n38" id="37to38"/>
<edge from="n37" to="n583" id="37to583"/>
<edge from="n37" to="n593" id="37to593"/>
<edge from="n37" to="n594" id="37to594"/>
<edge from="n37" to="n612" id="37to612"/>
<edge from="n37" to="n613" id="37to613"/>
<edge from="n38" to="n37" id="38to37"/>
<edge from="n38" to="n39" id="38to39"/>
<edge from="n38" to="n594" id="38to594"/>
<edge from="n38" to="n612" id="38to612"/>
<edge from="n38" to="n613" id="38to613"/>
<edge from="n39" to="n38" id="39to38"/>
<edge from="n39" to="n40" id="39to40"/>
<edge from="n39" to="n496" id="39to496"/>
<edge from="n39" to="n497" id="39to497"/>
<edge from="n39" to="n498" id="39to498"/>
<edge from="n39" to="n594" id="39to594"/>
<edge from="n39" to="n609" id="39to609"/>
<edge from="n39" to="n610" id="39to610"/>
<edge from="n39" to="n616" id="39to616"/>
<edge from="n40" to="n39" id="40to39"/>
<edge from="n40" to="n41" id="40to41"/>
<edge from="n40" to="n496" id="40to496"/>
<edge from="n40" to="n497" id="40to497"/>
<edge from="n40" to="n498" id="40to498"/>
<edge from="n40" to="n594" id="40to594"/>
<edge from="n40" to="n609" id="40to609"/>
<edge from="n40" to="n610" id="40to610"/>
<edge from="n40" to="n616" id="40to616"/>
<edge from="n41" to="n40" id="41to40"/>
<edge from="n41" to="n529" id="41to529"/>
<edge from="n41" to="n530" id="41to530"/>
<edge from="n41" to="n594" id="41to594"/>
<edge from="n41" to="n595" id="41to595"/>
<edge from="n41" to="n788" id="41to788"/>
<edge from="n41" to="n789" id="41to789"/>
<edge from="n41" to="n856" id="41to856"/>
<edge from="n42" to="n43" id="42to43"/>
<edge from="n42" to="n847" id="42to847"/>
<edge from="n43" to="n42" id="43to42"/>
<edge from="n43" to="n44" id="43to44"/>
<edge from="n43" to="n61" id="43to61"/>
<edge from="n43" to="n606" id="43to606"/>
<edge from="n43" to="n607" id="43to607"/>
<edge from="n43" to="n847" id="43to847"/>
<edge from="n44" to="n43" id="44to43"/>
<edge from="n44" to="n45" id="44to45"/>
<edge from="n44" to="n337" id="44to337"/>
<edge from="n44" to="n606" id="44to606"/>
<edge from="n44" to="n607" id="44to607"/>
<edge from="n44" to="n706" id="44to706"/>
<edge from="n44" to="n711" id="44to711"/>
<edge from="n44" to="n712" id="44to712"/>
<edge from="n45" to="n44" id="45to44"/>
<edge from="n45" to="n46" id="45to46"/>
<edge from="n45" to="n337" id="45to337"/>
<edge from="n45" to="n341" id="45to341"/>
<edge from="n45" to="n607" id="45to607"/>
<edge from="n45" to="n706" id="45to706"/>
<edge from="n45" to="n711" id="45to711"/>
<edge from="n45" to="n712" id="45to712"/>
<edge from="n46" to="n45" id="46to45"/>
<edge from="n46" to="n47" id="46to47"/>
<edge from="n46" to="n341" id="46to341"/>
<edge from="n46" to="n607" id="46to607"/>
<edge from="n46" to="n706" id="46to706"/>
<edge from="n47" to="n46" id="47to46"/>
<edge from="n47" to="n48" id="47to48"/>
<edge from="n47" to="n607" id="47to607"/>
<edge from="n48" to="n47" id="48to47"/>
<edge from="n48" to="n49" id="48to49"/>
<edge from="n48" to="n375" id="48to375"/>
<edge from="n48" to="n376" id="48to376"/>
<edge from="n48" to="n607" id="48to607"/>
<edge from="n49" to="n48" id="49to48"/>
<edge from="n49" to="n50" id="49to50"/>
<edge from="n49" to="n375" id="49to375"/>
<edge from="n49" to="n376" id="49to376"/>
<edge from="n49" to="n396" id="49to396"/>
<edge from="n49" to="n397" id="49to397"/>
<edge from="n49" to="n607" id="49to607"/>
<edge from="n50" to="n49" id="50to49"/>
<edge from="n50" to="n51" id="50to51"/>
<edge from="n50" to="n53" id="50to53"/>
<edge from="n50" to="n54" id="50to54"/>
<edge from="n50" to="n396" id="50to396"/>
<edge from="n50" to="n397" id="50to397"/>
<edge from="n50" to="n607" id="50to607"/>
<edge from="n50" to="n619" id="50to619"/>
<edge from="n51" to="n50" id="51to50"/>
<edge from="n51" to="n52" id="51to52"/>
<edge from="n51" to="n53" id="51to53"/>
<edge from="n51" to="n54" id="51to54"/>
<edge from="n51" to="n133" id="51to133"/>
<edge from="n51" to="n134" id="51to134"/>
<edge from="n51" to="n135" id="51to135"/>
<edge from="n51" to="n321" id="51to321"/>
<edge from="n51" to="n327" id="51to327"/>
<edge from="n51" to="n328" id="51to328"/>
<edge from="n51" to="n379" id="51to379"/>
<edge from="n51" to="n384" id="51to384"/>
<edge from="n51" to="n385" id="51to385"/>
<edge from="n51" to="n607" id="51to607"/>
<edge from="n51" to="n618" id="51to618"/>
<edge from="n51" to="n619" id="51to619"/>
<edge from="n52" to="n51" id="52to51"/>
<edge from="n52" to="n53" id="52to53"/>
<edge from="n52" to="n114" id="52to114"/>
<edge from="n52" to="n115" id="52to115"/>
<edge from="n52" to="n133" id="52to133"/>
<edge from="n52" to="n134" id="52to134"/>
<edge from="n52" to="n135" id="52to135"/>
<edge from="n52" to="n321" id="52to321"/>
<edge from="n52" to="n322" id="52to322"/>
<edge from="n52" to="n327" id="52to327"/>
<edge from="n52" to="n379" id="52to379"/>
<edge from="n52" to="n380" id="52to380"/>
<edge from="n52" to="n384" id="52to384"/>
<edge from="n52" to="n607" id="52to607"/>
<edge from="n52" to="n608" id="52to608"/>
<edge from="n52" to="n618" id="52to618"/>
<edge from="n52" to="n619" id="52to619"/>
<edge from="n53" to="n50" id="53to50"/>
<edge from="n53" to="n51" id="53to51"/>
<edge from="n53" to="n52" id="53to52"/>
<edge from="n53" to="n54" id="53to54"/>
<edge from="n53" to="n133" id="53to133"/>
<edge from="n53" to="n134" id="53to134"/>
<edge from="n53" to="n327" id="53to327"/>
<edge from="n53" to="n607" id="53to607"/>
<edge from="n53" to="n618" id="53to618"/>
<edge from="n53" to="n619" id="53to619"/>
<edge from="n54" to="n50" id="54to50"/>
<edge from="n54" to="n51" id="54to51"/>
<edge from="n54" to="n53" id="54to53"/>
<edge from="n54" to="n55" id="54to55"/>
<edge from="n54" to="n397" id="54to397"/>
<edge from="n54" to="n398" id="54to398"/>
<edge from="n54" to="n607" id="54to607"/>
<edge from="n54" to="n619" id="54to619"/>
<edge from="n55" to="n54" id="55to54"/>
<edge from="n55" to="n56" id="55to56"/>
<edge from="n55" to="n375" id="55to375"/>
<edge from="n55" to="n397" id="55to397"/>
<edge from="n55" to="n398" id="55to398"/>
<edge from="n55" to="n399" id="55to399"/>
<edge from="n55" to="n619" id="55to619"/>
<edge from="n56" to="n55" id="56to55"/>
<edge from="n56" to="n57" id="56to57"/>
<edge from="n56" to="n375" id="56to375"/>
<edge from="n56" to="n399" id="56to399"/>
<edge from="n56" to="n619" id="56to619"/>
<edge from="n57" to="n56" id="57to56"/>
<edge from="n57" to="n58" id="57to58"/>
<edge from="n57" to="n619" id="57to619"/>
<edge from="n58" to="n57" id="58to57"/>
<edge from="n58" to="n59" id="58to59"/>
<edge from="n58" to="n336" id="58to336"/>
<edge from="n58" to="n337" id="58to337"/>
<edge from="n58" to="n341" id="58to341"/>
<edge from="n58" to="n342" id="58to342"/>
<edge from="n58" to="n619" id="58to619"/>
<edge from="n58" to="n706" id="58to706"/>
<edge from="n59" to="n58" id="59to58"/>
<edge from="n59" to="n60" id="59to60"/>
<edge from="n59" to="n336" id="59to336"/>
<edge from="n59" to="n337" id="59to337"/>
<edge from="n59" to="n341" id="59to341"/>
<edge from="n59" to="n342" id="59to342"/>
<edge from="n59" to="n619" id="59to619"/>
<edge from="n59" to="n706" id="59to706"/>
<edge from="n59" to="n707" id="59to707"/>
<edge from="n59" to="n711" id="59to711"/>
<edge from="n60" to="n59" id="60to59"/>
<edge from="n60" to="n61" id="60to61"/>
<edge from="n60" to="n619" id="60to619"/>
<edge from="n60" to="n706" id="60to706"/>
<edge from="n60" to="n707" id="60to707"/>
<edge from="n60" to="n711" id="60to711"/>
<edge from="n61" to="n43" id="61to43"/>
<edge from="n61" to="n60" id="61to60"/>
<edge from="n61" to="n619" id="61to619"/>
<edge from="n61" to="n803" id="61to803"/>
<edge from="n61" to="n847" id="61to847"/>
<edge from="n62" to="n63" id="62to63"/>
<edge from="n62" to="n75" id="62to75"/>
<edge from="n62" to="n302" id="62to302"/>
<edge from="n62" to="n307" id="62to307"/>
<edge from="n62" to="n701" id="62to701"/>
<edge from="n62" to="n804" id="62to804"/>
<edge from="n62" to="n805" id="62to805"/>
<edge from="n62" to="n845" id="62to845"/>
<edge from="n63" to="n62" id="63to62"/>
<edge from="n63" to="n64" id="63to64"/>
<edge from="n63" to="n74" id="63to74"/>
<edge from="n63" to="n75" id="63to75"/>
<edge from="n63" to="n805" id="63to805"/>
<edge from="n63" to="n806" id="63to806"/>
<edge from="n63" to="n844" id="63to844"/>
<edge from="n63" to="n845" id="63to845"/>
<edge from="n64" to="n63" id="64to63"/>
<edge from="n64" to="n65" id="64to65"/>
<edge from="n64" to="n73" id="64to73"/>
<edge from="n64" to="n74" id="64to74"/>
<edge from="n64" to="n75" id="64to75"/>
<edge from="n64" to="n331" id="64to331"/>
<edge from="n64" to="n332" id="64to332"/>
<edge from="n64" to="n805" id="64to805"/>
<edge from="n64" to="n806" id="64to806"/>
<edge from="n64" to="n807" id="64to807"/>
<edge from="n64" to="n808" id="64to808"/>
<edge from="n64" to="n842" id="64to842"/>
<edge from="n64" to="n843" id="64to843"/>
<edge from="n64" to="n844" id="64to844"/>
<edge from="n64" to="n845" id="64to845"/>
<edge from="n65" to="n64" id="65to64"/>
<edge from="n65" to="n66" id="65to66"/>
<edge from="n65" to="n72" id="65to72"/>
<edge from="n65" to="n73" id="65to73"/>
<edge from="n65" to="n74" id="65to74"/>
<edge from="n65" to="n331" id="65to331"/>
<edge from="n65" to="n332" id="65to332"/>
<edge from="n65" to="n410" id="65to410"/>
<edge from="n65" to="n411" id="65to411"/>
<edge from="n65" to="n807" id="65to807"/>
<edge from="n65" to="n808" id="65to808"/>
<edge from="n65" to="n809" id="65to809"/>
<edge from="n65" to="n841" id="65to841"/>
<edge from="n65" to="n842" id="65to842"/>
<edge from="n65" to="n843" id="65to843"/>
<edge from="n66" to="n65" id="66to65"/>
<edge from="n66" to="n67" id="66to67"/>
<edge from="n66" to="n71" id="66to71"/>
<edge from="n66" to="n72" id="66to72"/>
<edge from="n66" to="n73" id="66to73"/>
<edge from="n66" to="n410" id="66to410"/>
<edge from="n66" to="n411" id="66to411"/>
<edge from="n66" to="n808" id="66to808"/>
<edge from="n66" to="n809" id="66to809"/>
<edge from="n66" to="n810" id="66to810"/>
<edge from="n66" to="n840" id="66to840"/>
<edge from="n66" to="n841" id="66to841"/>
<edge from="n66" to="n842" id="66to842"/>
<edge from="n67" to="n66" id="67to66"/>
<edge from="n67" to="n68" id="67to68"/>
<edge from="n67" to="n70" id="67to70"/>
<edge from="n67" to="n71" id="67to71"/>
<edge from="n67" to="n72" id="67to72"/>
<edge from="n67" to="n809" id="67to809"/>
<edge from="n67" to="n810" id="67to810"/>
<edge from="n67" to="n811" id="67to811"/>
<edge from="n67" to="n839" id="67to839"/>
<edge from="n67" to="n840" id="67to840"/>
<edge from="n67" to="n841" id="67to841"/>
<edge from="n68" to="n67" id="68to67"/>
<edge from="n68" to="n69" id="68to69"/>
<edge from="n68" to="n70" id="68to70"/>
<edge from="n68" to="n71" id="68to71"/>
<edge from="n68" to="n230" id="68to230"/>
<edge from="n68" to="n810" id="68to810"/>
<edge from="n68" to="n811" id="68to811"/>
<edge from="n68" to="n828" id="68to828"/>
<edge from="n68" to="n838" id="68to838"/>
<edge from="n68" to="n839" id="68to839"/>
<edge from="n68" to="n840" id="68to840"/>
<edge from="n69" to="n68" id="69to68"/>
<edge from="n69" to="n70" id="69to70"/>
<edge from="n69" to="n230" id="69to230"/>
<edge from="n69" to="n811" id="69to811"/>
<edge from="n69" to="n828" id="69to828"/>
<edge from="n69" to="n838" id="69to838"/>
<edge from="n69" to="n839" id="69to839"/>
<edge from="n70" to="n67" id="70to67"/>
<edge from="n70" to="n68" id="70to68"/>
<edge from="n70" to="n69" id="70to69"/>
<edge from="n70" to="n71" id="70to71"/>
<edge from="n70" to="n810" id="70to810"/>
<edge from="n70" to="n811" id="70to811"/>
<edge from="n70" to="n838" id="70to838"/>
<edge from="n70" to="n839" id="70to839"/>
<edge from="n70" to="n840" id="70to840"/>
<edge from="n71" to="n66" id="71to66"/>
<edge from="n71" to="n67" id="71to67"/>
<edge from="n71" to="n68" id="71to68"/>
<edge from="n71" to="n70" id="71to70"/>
<edge from="n71" to="n72" id="71to72"/>
<edge from="n71" to="n809" id="71to809"/>
<edge from="n71" to="n810" id="71to810"/>
<edge from="n71" to="n811" id="71to811"/>
<edge from="n71" to="n839" id="71to839"/>
<edge from="n71" to="n840" id="71to840"/>
<edge from="n71" to="n841" id="71to841"/>
<edge from="n72" to="n65" id="72to65"/>
<edge from="n72" to="n66" id="72to66"/>
<edge from="n72" to="n67" id="72to67"/>
<edge from="n72" to="n71" id="72to71"/>
<edge from="n72" to="n73" id="72to73"/>
<edge from="n72" to="n410" id="72to410"/>
<edge from="n72" to="n411" id="72to411"/>
<edge from="n72" to="n808" id="72to808"/>
<edge from="n72" to="n809" id="72to809"/>
<edge from="n72" to="n810" id="72to810"/>
<edge from="n72" to="n840" id="72to840"/>
<edge from="n72" to="n841" id="72to841"/>
<edge from="n72" to="n842" id="72to842"/>
<edge from="n73" to="n64" id="73to64"/>
<edge from="n73" to="n65" id="73to65"/>
<edge from="n73" to="n66" id="73to66"/>
<edge from="n73" to="n72" id="73to72"/>
<edge from="n73" to="n74" id="73to74"/>
<edge from="n73" to="n331" id="73to331"/>
<edge from="n73" to="n332" id="73to332"/>
<edge from="n73" to="n410" id="73to410"/>
<edge from="n73" to="n411" id="73to411"/>
<edge from="n73" to="n807" id="73to807"/>
<edge from="n73" to="n808" id="73to808"/>
<edge from="n73" to="n809" id="73to809"/>
<edge from="n73" to="n841" id="73to841"/>
<edge from="n73" to="n842" id="73to842"/>
<edge from="n73" to="n843" id="73to843"/>
<edge from="n74" to="n63" id="74to63"/>
<edge from="n74" to="n64" id="74to64"/>
<edge from="n74" to="n65" id="74to65"/>
<edge from="n74" to="n73" id="74to73"/>
<edge from="n74" to="n75" id="74to75"/>
<edge from="n74" to="n331" id="74to331"/>
<edge from="n74" to="n332" id="74to332"/>
<edge from="n74" to="n805" id="74to805"/>
<edge from="n74" to="n806" id="74to806"/>
<edge from="n74" to="n807" id="74to807"/>
<edge from="n74" to="n808" id="74to808"/>
<edge from="n74" to="n842" id="74to842"/>
<edge from="n74" to="n843" id="74to843"/>
<edge from="n74" to="n844" id="74to844"/>
<edge from="n74" to="n845" id="74to845"/>
<edge from="n75" to="n62" id="75to62"/>
<edge from="n75" to="n63" id="75to63"/>
<edge from="n75" to="n64" id="75to64"/>
<edge from="n75" to="n74" id="75to74"/>
<edge from="n75" to="n302" id="75to302"/>
<edge from="n75" to="n307" id="75to307"/>
<edge from="n75" to="n701" id="75to701"/>
<edge from="n75" to="n804" id="75to804"/>
<edge from="n75" to="n805" id="75to805"/>
<edge from="n75" to="n806" id="75to806"/>
<edge from="n75" to="n844" id="75to844"/>
<edge from="n75" to="n845" id="75to845"/>
<edge from="n76" to="n77" id="76to77"/>
<edge from="n76" to="n332" id="76to332"/>
<edge from="n76" to="n333" id="76to333"/>
<edge from="n77" to="n76" id="77to76"/>
<edge from="n77" to="n78" id="77to78"/>
<edge from="n77" to="n409" id="77to409"/>
<edge from="n77" to="n410" id="77to410"/>
<edge from="n77" to="n411" id="77to411"/>
<edge from="n78" to="n77" id="78to77"/>
<edge from="n78" to="n409" id="78to409"/>
<edge from="n78" to="n410" id="78to410"/>
<edge from="n78" to="n411" id="78to411"/>
<edge from="n79" to="n80" id="79to80"/>
<edge from="n79" to="n93" id="79to93"/>
<edge from="n80" to="n79" id="80to79"/>
<edge from="n80" to="n91" id="80to91"/>
<edge from="n80" to="n92" id="80to92"/>
<edge from="n80" to="n93" id="80to93"/>
<edge from="n80" to="n698" id="80to698"/>
<edge from="n80" to="n700" id="80to700"/>
<edge from="n80" to="n701" id="80to701"/>
<edge from="n81" to="n82" id="81to82"/>
<edge from="n81" to="n324" id="81to324"/>
<edge from="n82" to="n81" id="82to81"/>
<edge from="n82" to="n83" id="82to83"/>
<edge from="n82" to="n87" id="82to87"/>
<edge from="n82" to="n88" id="82to88"/>
<edge from="n82" to="n324" id="82to324"/>
<edge from="n82" to="n802" id="82to802"/>
<edge from="n82" to="n848" id="82to848"/>
<edge from="n83" to="n82" id="83to82"/>
<edge from="n83" to="n84" id="83to84"/>
<edge from="n83" to="n86" id="83to86"/>
<edge from="n83" to="n87" id="83to87"/>
<edge from="n83" to="n88" id="83to88"/>
<edge from="n83" to="n552" id="83to552"/>
<edge from="n83" to="n553" id="83to553"/>
<edge from="n83" to="n802" id="83to802"/>
<edge from="n83" to="n848" id="83to848"/>
<edge from="n84" to="n83" id="84to83"/>
<edge from="n84" to="n85" id="84to85"/>
<edge from="n84" to="n86" id="84to86"/>
<edge from="n84" to="n287" id="84to287"/>
<edge from="n84" to="n288" id="84to288"/>
<edge from="n84" to="n289" id="84to289"/>
<edge from="n84" to="n552" id="84to552"/>
<edge from="n84" to="n670" id="84to670"/>
<edge from="n84" to="n671" id="84to671"/>
<edge from="n84" to="n802" id="84to802"/>
<edge from="n85" to="n84" id="85to84"/>
<edge from="n85" to="n86" id="85to86"/>
<edge from="n85" to="n287" id="85to287"/>
<edge from="n85" to="n288" id="85to288"/>
<edge from="n85" to="n289" id="85to289"/>
<edge from="n86" to="n83" id="86to83"/>
<edge from="n86" to="n84" id="86to84"/>
<edge from="n86" to="n85" id="86to85"/>
<edge from="n86" to="n87" id="86to87"/>
<edge from="n86" to="n287" id="86to287"/>
<edge from="n86" to="n288" id="86to288"/>
<edge from="n86" to="n552" id="86to552"/>
<edge from="n86" to="n553" id="86to553"/>
<edge from="n86" to="n802" id="86to802"/>
<edge from="n86" to="n848" id="86to848"/>
<edge from="n87" to="n82" id="87to82"/>
<edge from="n87" to="n83" id="87to83"/>
<edge from="n87" to="n86" id="87to86"/>
<edge from="n87" to="n88" id="87to88"/>
<edge from="n87" to="n553" id="87to553"/>
<edge from="n87" to="n802" id="87to802"/>
<edge from="n87" to="n848" id="87to848"/>
<edge from="n88" to="n82" id="88to82"/>
<edge from="n88" to="n83" id="88to83"/>
<edge from="n88" to="n87" id="88to87"/>
<edge from="n88" to="n318" id="88to318"/>
<edge from="n88" to="n319" id="88to319"/>
<edge from="n88" to="n324" id="88to324"/>
<edge from="n88" to="n325" id="88to325"/>
<edge from="n88" to="n802" id="88to802"/>
<edge from="n88" to="n848" id="88to848"/>
<edge from="n89" to="n90" id="89to90"/>
<edge from="n89" to="n91" id="89to91"/>
<edge from="n89" to="n95" id="89to95"/>
<edge from="n89" to="n101" id="89to101"/>
<edge from="n89" to="n210" id="89to210"/>
<edge from="n89" to="n230" id="89to230"/>
<edge from="n89" to="n410" id="89to410"/>
<edge from="n89" to="n411" id="89to411"/>
<edge from="n89" to="n412" id="89to412"/>
<edge from="n89" to="n820" id="89to820"/>
<edge from="n90" to="n89" id="90to89"/>
<edge from="n90" to="n91" id="90to91"/>
<edge from="n90" to="n92" id="90to92"/>
<edge from="n90" to="n101" id="90to101"/>
<edge from="n90" to="n230" id="90to230"/>
<edge from="n90" to="n330" id="90to330"/>
<edge from="n90" to="n331" id="90to331"/>
<edge from="n90" to="n410" id="90to410"/>
<edge from="n90" to="n411" id="90to411"/>
<edge from="n90" to="n412" id="90to412"/>
<edge from="n90" to="n820" id="90to820"/>
<edge from="n91" to="n80" id="91to80"/>
<edge from="n91" to="n89" id="91to89"/>
<edge from="n91" to="n90" id="91to90"/>
<edge from="n91" to="n92" id="91to92"/>
<edge from="n91" to="n93" id="91to93"/>
<edge from="n91" to="n330" id="91to330"/>
<edge from="n91" to="n331" id="91to331"/>
<edge from="n91" to="n410" id="91to410"/>
<edge from="n91" to="n411" id="91to411"/>
<edge from="n91" to="n412" id="91to412"/>
<edge from="n91" to="n698" id="91to698"/>
<edge from="n91" to="n700" id="91to700"/>
<edge from="n91" to="n701" id="91to701"/>
<edge from="n92" to="n80" id="92to80"/>
<edge from="n92" to="n90" id="92to90"/>
<edge from="n92" to="n91" id="92to91"/>
<edge from="n92" to="n93" id="92to93"/>
<edge from="n92" to="n330" id="92to330"/>
<edge from="n92" to="n331" id="92to331"/>
<edge from="n92" to="n698" id="92to698"/>
<edge from="n92" to="n700" id="92to700"/>
<edge from="n92" to="n701" id="92to701"/>
<edge from="n93" to="n79" id="93to79"/>
<edge from="n93" to="n80" id="93to80"/>
<edge from="n93" to="n91" id="93to91"/>
<edge from="n93" to="n92" id="93to92"/>
<edge from="n93" to="n698" id="93to698"/>
<edge from="n93" to="n700" id="93to700"/>
<edge from="n93" to="n701" id="93to701"/>
<edge from="n94" to="n95" id="94to95"/>
<edge from="n94" to="n98" id="94to98"/>
<edge from="n94" to="n100" id="94to100"/>
<edge from="n94" to="n280" id="94to280"/>
<edge from="n94" to="n820" id="94to820"/>
<edge from="n95" to="n89" id="95to89"/>
<edge from="n95" to="n94" id="95to94"/>
<edge from="n95" to="n98" id="95to98"/>
<edge from="n95" to="n100" id="95to100"/>
<edge from="n95" to="n101" id="95to101"/>
<edge from="n95" to="n210" id="95to210"/>
<edge from="n95" to="n351" id="95to351"/>
<edge from="n95" to="n359" id="95to359"/>
<edge from="n95" to="n632" id="95to632"/>